<additional>
    <e2Detector id="1" lane="1i_0" pos="442" length="50" tl="0" file="cross.out"/>
    <e2Detector id="2" lane="2i_0" pos="442" length="50" tl="0" file="cross.out"/>
    <e2Detector id="3" lane="3i_0" pos="442" length="50" tl="0" file="cross.out"/>
    <e2Detector id="4" lane="4i_0" pos="442" length="50" tl="0" file="cross.out"/>
</additional>