<routes>
                <vType id="type" accel="0.8" decel="4.5" sigma="0.5" length="5" minGap="2.5" maxSpeed="16.67"         guiShape="passenger"/>
                
                <route id="rightUp" edges="51i 1i 2o 52o" />
                <route id="rightLeft" edges="51i 1i 3o 53o" />
                <route id="rightDown" edges="51i 1i 4o 54o" />
                <route id="upRight" edges="52i 2i 1o 51o" />
                <route id="upLeft" edges="52i 2i 3o 53o" />
                <route id="upDown" edges="52i 2i 4o 54o" />                
                <route id="leftRight" edges="53i 3i 1o 51o" />
                <route id="leftUp" edges="53i 3i 2o 52o" />
                <route id="leftDown" edges="53i 3i 4o 54o" />
                <route id="downRight" edges="54i 4i 1o 51o" />
                <route id="downUp" edges="54i 4i 2o 52o" />
                <route id="downLeft" edges="54i 4i 3o 53o" />
    <vehicle id="v_0" type="type" route="upLeft" depart="0" />
    <vehicle id="v_1" type="type" route="rightLeft" depart="2" />
    <vehicle id="v_2" type="type" route="leftRight" depart="2" />
    <vehicle id="v_3" type="type" route="rightLeft" depart="4" />
    <vehicle id="v_4" type="type" route="upLeft" depart="9" />
    <vehicle id="v_5" type="type" route="leftRight" depart="15" />
    <vehicle id="v_6" type="type" route="downRight" depart="20" />
    <vehicle id="v_7" type="type" route="upDown" depart="23" />
    <vehicle id="v_8" type="type" route="rightLeft" depart="29" />
    <vehicle id="v_9" type="type" route="upDown" depart="29" />
    <vehicle id="v_10" type="type" route="downUp" depart="64" />
    <vehicle id="v_11" type="type" route="downUp" depart="69" />
    <vehicle id="v_12" type="type" route="upRight" depart="71" />
    <vehicle id="v_13" type="type" route="downUp" depart="77" />
    <vehicle id="v_14" type="type" route="rightLeft" depart="82" />
    <vehicle id="v_15" type="type" route="upDown" depart="88" />
    <vehicle id="v_16" type="type" route="leftRight" depart="94" />
    <vehicle id="v_17" type="type" route="leftRight" depart="99" />
    <vehicle id="v_18" type="type" route="upDown" depart="102" />
    <vehicle id="v_19" type="type" route="leftRight" depart="115" />
    <vehicle id="v_20" type="type" route="upDown" depart="118" />
    <vehicle id="v_21" type="type" route="rightLeft" depart="120" />
    <vehicle id="v_22" type="type" route="leftRight" depart="120" />
    <vehicle id="v_23" type="type" route="downUp" depart="123" />
    <vehicle id="v_24" type="type" route="rightUp" depart="126" />
    <vehicle id="v_25" type="type" route="leftRight" depart="129" />
    <vehicle id="v_26" type="type" route="downLeft" depart="140" />
    <vehicle id="v_27" type="type" route="downLeft" depart="142" />
    <vehicle id="v_28" type="type" route="upDown" depart="152" />
    <vehicle id="v_29" type="type" route="downUp" depart="163" />
    <vehicle id="v_30" type="type" route="leftRight" depart="171" />
    <vehicle id="v_31" type="type" route="upDown" depart="174" />
    <vehicle id="v_32" type="type" route="upDown" depart="196" />
    <vehicle id="v_33" type="type" route="upDown" depart="198" />
    <vehicle id="v_34" type="type" route="upRight" depart="204" />
    <vehicle id="v_35" type="type" route="upDown" depart="207" />
    <vehicle id="v_36" type="type" route="leftUp" depart="211" />
    <vehicle id="v_37" type="type" route="downUp" depart="217" />
    <vehicle id="v_38" type="type" route="leftRight" depart="229" />
    <vehicle id="v_39" type="type" route="downLeft" depart="231" />
    <vehicle id="v_40" type="type" route="downUp" depart="238" />
    <vehicle id="v_41" type="type" route="rightLeft" depart="243" />
    <vehicle id="v_42" type="type" route="rightDown" depart="246" />
    <vehicle id="v_43" type="type" route="leftRight" depart="247" />
    <vehicle id="v_44" type="type" route="upDown" depart="251" />
    <vehicle id="v_45" type="type" route="rightDown" depart="270" />
    <vehicle id="v_46" type="type" route="downLeft" depart="271" />
    <vehicle id="v_47" type="type" route="rightLeft" depart="273" />
    <vehicle id="v_48" type="type" route="upDown" depart="279" />
    <vehicle id="v_49" type="type" route="downUp" depart="279" />
    <vehicle id="v_50" type="type" route="rightLeft" depart="281" />
    <vehicle id="v_51" type="type" route="upRight" depart="283" />
    <vehicle id="v_52" type="type" route="upLeft" depart="285" />
    <vehicle id="v_53" type="type" route="upDown" depart="317" />
    <vehicle id="v_54" type="type" route="downRight" depart="329" />
    <vehicle id="v_55" type="type" route="rightDown" depart="331" />
    <vehicle id="v_56" type="type" route="downRight" depart="333" />
    <vehicle id="v_57" type="type" route="rightLeft" depart="336" />
    <vehicle id="v_58" type="type" route="leftRight" depart="337" />
    <vehicle id="v_59" type="type" route="leftUp" depart="342" />
    <vehicle id="v_60" type="type" route="upDown" depart="344" />
    <vehicle id="v_61" type="type" route="upLeft" depart="347" />
    <vehicle id="v_62" type="type" route="leftDown" depart="347" />
    <vehicle id="v_63" type="type" route="leftDown" depart="356" />
    <vehicle id="v_64" type="type" route="upRight" depart="360" />
    <vehicle id="v_65" type="type" route="downUp" depart="372" />
    <vehicle id="v_66" type="type" route="leftRight" depart="385" />
    <vehicle id="v_67" type="type" route="leftDown" depart="397" />
    <vehicle id="v_68" type="type" route="downRight" depart="406" />
    <vehicle id="v_69" type="type" route="rightLeft" depart="413" />
    <vehicle id="v_70" type="type" route="upDown" depart="416" />
    <vehicle id="v_71" type="type" route="downUp" depart="416" />
    <vehicle id="v_72" type="type" route="downUp" depart="433" />
    <vehicle id="v_73" type="type" route="downUp" depart="440" />
    <vehicle id="v_74" type="type" route="rightLeft" depart="450" />
    <vehicle id="v_75" type="type" route="upDown" depart="464" />
    <vehicle id="v_76" type="type" route="downUp" depart="465" />
    <vehicle id="v_77" type="type" route="rightUp" depart="471" />
    <vehicle id="v_78" type="type" route="rightLeft" depart="475" />
    <vehicle id="v_79" type="type" route="leftRight" depart="475" />
    <vehicle id="v_80" type="type" route="rightLeft" depart="476" />
    <vehicle id="v_81" type="type" route="upDown" depart="492" />
    <vehicle id="v_82" type="type" route="upDown" depart="505" />
    <vehicle id="v_83" type="type" route="upDown" depart="507" />
    <vehicle id="v_84" type="type" route="rightLeft" depart="509" />
    <vehicle id="v_85" type="type" route="upDown" depart="509" />
    <vehicle id="v_86" type="type" route="rightLeft" depart="510" />
    <vehicle id="v_87" type="type" route="leftRight" depart="516" />
    <vehicle id="v_88" type="type" route="leftRight" depart="518" />
    <vehicle id="v_89" type="type" route="leftRight" depart="519" />
    <vehicle id="v_90" type="type" route="leftDown" depart="520" />
    <vehicle id="v_91" type="type" route="leftRight" depart="527" />
    <vehicle id="v_92" type="type" route="upLeft" depart="532" />
    <vehicle id="v_93" type="type" route="upDown" depart="534" />
    <vehicle id="v_94" type="type" route="upDown" depart="557" />
    <vehicle id="v_95" type="type" route="downUp" depart="558" />
    <vehicle id="v_96" type="type" route="leftRight" depart="561" />
    <vehicle id="v_97" type="type" route="leftRight" depart="569" />
    <vehicle id="v_98" type="type" route="rightUp" depart="582" />
    <vehicle id="v_99" type="type" route="leftUp" depart="584" />
    <vehicle id="v_100" type="type" route="upDown" depart="588" />
    <vehicle id="v_101" type="type" route="downUp" depart="603" />
    <vehicle id="v_102" type="type" route="leftRight" depart="608" />
    <vehicle id="v_103" type="type" route="rightDown" depart="610" />
    <vehicle id="v_104" type="type" route="downUp" depart="614" />
    <vehicle id="v_105" type="type" route="downUp" depart="615" />
    <vehicle id="v_106" type="type" route="upDown" depart="620" />
    <vehicle id="v_107" type="type" route="leftRight" depart="632" />
    <vehicle id="v_108" type="type" route="rightUp" depart="633" />
    <vehicle id="v_109" type="type" route="leftUp" depart="644" />
    <vehicle id="v_110" type="type" route="downLeft" depart="648" />
    <vehicle id="v_111" type="type" route="rightLeft" depart="656" />
    <vehicle id="v_112" type="type" route="rightLeft" depart="659" />
    <vehicle id="v_113" type="type" route="leftRight" depart="660" />
    <vehicle id="v_114" type="type" route="upDown" depart="673" />
    <vehicle id="v_115" type="type" route="leftRight" depart="675" />
    <vehicle id="v_116" type="type" route="upDown" depart="677" />
    <vehicle id="v_117" type="type" route="downRight" depart="679" />
    <vehicle id="v_118" type="type" route="leftRight" depart="681" />
    <vehicle id="v_119" type="type" route="downUp" depart="682" />
    <vehicle id="v_120" type="type" route="upDown" depart="684" />
    <vehicle id="v_121" type="type" route="rightLeft" depart="697" />
    <vehicle id="v_122" type="type" route="leftDown" depart="700" />
    <vehicle id="v_123" type="type" route="upDown" depart="702" />
    <vehicle id="v_124" type="type" route="downUp" depart="710" />
    <vehicle id="v_125" type="type" route="upDown" depart="716" />
    <vehicle id="v_126" type="type" route="upDown" depart="723" />
    <vehicle id="v_127" type="type" route="leftRight" depart="726" />
    <vehicle id="v_128" type="type" route="downUp" depart="728" />
    <vehicle id="v_129" type="type" route="rightLeft" depart="750" />
    <vehicle id="v_130" type="type" route="rightDown" depart="751" />
    <vehicle id="v_131" type="type" route="leftUp" depart="752" />
    <vehicle id="v_132" type="type" route="leftRight" depart="759" />
    <vehicle id="v_133" type="type" route="leftRight" depart="762" />
    <vehicle id="v_134" type="type" route="leftUp" depart="767" />
    <vehicle id="v_135" type="type" route="rightDown" depart="768" />
    <vehicle id="v_136" type="type" route="downUp" depart="768" />
    <vehicle id="v_137" type="type" route="downUp" depart="779" />
    <vehicle id="v_138" type="type" route="downUp" depart="793" />
    <vehicle id="v_139" type="type" route="downUp" depart="796" />
    <vehicle id="v_140" type="type" route="upLeft" depart="797" />
    <vehicle id="v_141" type="type" route="rightDown" depart="806" />
    <vehicle id="v_142" type="type" route="downLeft" depart="806" />
    <vehicle id="v_143" type="type" route="leftUp" depart="807" />
    <vehicle id="v_144" type="type" route="upDown" depart="814" />
    <vehicle id="v_145" type="type" route="upDown" depart="815" />
    <vehicle id="v_146" type="type" route="upLeft" depart="819" />
    <vehicle id="v_147" type="type" route="downLeft" depart="820" />
    <vehicle id="v_148" type="type" route="upDown" depart="828" />
    <vehicle id="v_149" type="type" route="rightLeft" depart="830" />
    <vehicle id="v_150" type="type" route="downRight" depart="841" />
    <vehicle id="v_151" type="type" route="upRight" depart="848" />
    <vehicle id="v_152" type="type" route="upDown" depart="854" />
    <vehicle id="v_153" type="type" route="downRight" depart="867" />
    <vehicle id="v_154" type="type" route="leftUp" depart="870" />
    <vehicle id="v_155" type="type" route="rightLeft" depart="875" />
    <vehicle id="v_156" type="type" route="rightLeft" depart="889" />
    <vehicle id="v_157" type="type" route="leftDown" depart="893" />
    <vehicle id="v_158" type="type" route="upRight" depart="895" />
    <vehicle id="v_159" type="type" route="downUp" depart="901" />
    <vehicle id="v_160" type="type" route="upDown" depart="910" />
    <vehicle id="v_161" type="type" route="downUp" depart="920" />
    <vehicle id="v_162" type="type" route="upDown" depart="926" />
    <vehicle id="v_163" type="type" route="leftRight" depart="926" />
    <vehicle id="v_164" type="type" route="leftRight" depart="935" />
    <vehicle id="v_165" type="type" route="downLeft" depart="936" />
    <vehicle id="v_166" type="type" route="downRight" depart="946" />
    <vehicle id="v_167" type="type" route="downUp" depart="947" />
    <vehicle id="v_168" type="type" route="leftUp" depart="949" />
    <vehicle id="v_169" type="type" route="rightLeft" depart="957" />
    <vehicle id="v_170" type="type" route="rightLeft" depart="960" />
    <vehicle id="v_171" type="type" route="leftRight" depart="965" />
    <vehicle id="v_172" type="type" route="downRight" depart="974" />
    <vehicle id="v_173" type="type" route="leftRight" depart="976" />
    <vehicle id="v_174" type="type" route="rightLeft" depart="980" />
    <vehicle id="v_175" type="type" route="rightLeft" depart="981" />
    <vehicle id="v_176" type="type" route="upRight" depart="981" />
    <vehicle id="v_177" type="type" route="upRight" depart="991" />
    <vehicle id="v_178" type="type" route="leftUp" depart="993" />
    <vehicle id="v_179" type="type" route="rightLeft" depart="1001" />
    <vehicle id="v_180" type="type" route="rightLeft" depart="1007" />
    <vehicle id="v_181" type="type" route="downRight" depart="1019" />
    <vehicle id="v_182" type="type" route="upDown" depart="1029" />
    <vehicle id="v_183" type="type" route="downUp" depart="1031" />
    <vehicle id="v_184" type="type" route="rightLeft" depart="1035" />
    <vehicle id="v_185" type="type" route="upDown" depart="1041" />
    <vehicle id="v_186" type="type" route="upDown" depart="1042" />
    <vehicle id="v_187" type="type" route="rightLeft" depart="1043" />
    <vehicle id="v_188" type="type" route="downUp" depart="1043" />
    <vehicle id="v_189" type="type" route="leftRight" depart="1050" />
    <vehicle id="v_190" type="type" route="downUp" depart="1058" />
    <vehicle id="v_191" type="type" route="rightDown" depart="1061" />
    <vehicle id="v_192" type="type" route="downRight" depart="1064" />
    <vehicle id="v_193" type="type" route="rightLeft" depart="1076" />
    <vehicle id="v_194" type="type" route="downLeft" depart="1076" />
    <vehicle id="v_195" type="type" route="rightUp" depart="1088" />
    <vehicle id="v_196" type="type" route="upDown" depart="1101" />
    <vehicle id="v_197" type="type" route="rightLeft" depart="1103" />
    <vehicle id="v_198" type="type" route="rightLeft" depart="1111" />
    <vehicle id="v_199" type="type" route="downUp" depart="1111" />
    <vehicle id="v_200" type="type" route="downUp" depart="1115" />
    <vehicle id="v_201" type="type" route="leftRight" depart="1121" />
    <vehicle id="v_202" type="type" route="rightLeft" depart="1123" />
    <vehicle id="v_203" type="type" route="downUp" depart="1125" />
    <vehicle id="v_204" type="type" route="leftRight" depart="1126" />
    <vehicle id="v_205" type="type" route="downUp" depart="1128" />
    <vehicle id="v_206" type="type" route="upLeft" depart="1129" />
    <vehicle id="v_207" type="type" route="downUp" depart="1130" />
    <vehicle id="v_208" type="type" route="rightDown" depart="1132" />
    <vehicle id="v_209" type="type" route="upLeft" depart="1135" />
    <vehicle id="v_210" type="type" route="upDown" depart="1139" />
    <vehicle id="v_211" type="type" route="upDown" depart="1156" />
    <vehicle id="v_212" type="type" route="leftRight" depart="1156" />
    <vehicle id="v_213" type="type" route="rightLeft" depart="1160" />
    <vehicle id="v_214" type="type" route="rightDown" depart="1163" />
    <vehicle id="v_215" type="type" route="downUp" depart="1164" />
    <vehicle id="v_216" type="type" route="upDown" depart="1180" />
    <vehicle id="v_217" type="type" route="upRight" depart="1183" />
    <vehicle id="v_218" type="type" route="downLeft" depart="1183" />
    <vehicle id="v_219" type="type" route="rightLeft" depart="1185" />
    <vehicle id="v_220" type="type" route="upRight" depart="1197" />
    <vehicle id="v_221" type="type" route="downUp" depart="1199" />
    <vehicle id="v_222" type="type" route="upDown" depart="1201" />
    <vehicle id="v_223" type="type" route="upLeft" depart="1202" />
    <vehicle id="v_224" type="type" route="rightDown" depart="1209" />
    <vehicle id="v_225" type="type" route="leftRight" depart="1211" />
    <vehicle id="v_226" type="type" route="leftRight" depart="1214" />
    <vehicle id="v_227" type="type" route="downLeft" depart="1218" />
    <vehicle id="v_228" type="type" route="rightLeft" depart="1220" />
    <vehicle id="v_229" type="type" route="leftRight" depart="1223" />
    <vehicle id="v_230" type="type" route="leftRight" depart="1236" />
    <vehicle id="v_231" type="type" route="upRight" depart="1249" />
    <vehicle id="v_232" type="type" route="upDown" depart="1253" />
    <vehicle id="v_233" type="type" route="downUp" depart="1260" />
    <vehicle id="v_234" type="type" route="upDown" depart="1275" />
    <vehicle id="v_235" type="type" route="rightUp" depart="1280" />
    <vehicle id="v_236" type="type" route="downLeft" depart="1289" />
    <vehicle id="v_237" type="type" route="rightDown" depart="1291" />
    <vehicle id="v_238" type="type" route="leftRight" depart="1296" />
    <vehicle id="v_239" type="type" route="rightUp" depart="1298" />
    <vehicle id="v_240" type="type" route="rightDown" depart="1315" />
    <vehicle id="v_241" type="type" route="leftRight" depart="1319" />
    <vehicle id="v_242" type="type" route="downRight" depart="1324" />
    <vehicle id="v_243" type="type" route="upRight" depart="1325" />
    <vehicle id="v_244" type="type" route="leftRight" depart="1327" />
    <vehicle id="v_245" type="type" route="leftUp" depart="1328" />
    <vehicle id="v_246" type="type" route="upLeft" depart="1329" />
    <vehicle id="v_247" type="type" route="rightUp" depart="1337" />
    <vehicle id="v_248" type="type" route="rightLeft" depart="1338" />
    <vehicle id="v_249" type="type" route="upLeft" depart="1338" />
    <vehicle id="v_250" type="type" route="downUp" depart="1341" />
    <vehicle id="v_251" type="type" route="upLeft" depart="1343" />
    <vehicle id="v_252" type="type" route="downUp" depart="1347" />
    <vehicle id="v_253" type="type" route="upDown" depart="1349" />
    <vehicle id="v_254" type="type" route="upDown" depart="1365" />
    <vehicle id="v_255" type="type" route="leftRight" depart="1365" />
    <vehicle id="v_256" type="type" route="rightLeft" depart="1366" />
    <vehicle id="v_257" type="type" route="downUp" depart="1367" />
    <vehicle id="v_258" type="type" route="leftRight" depart="1370" />
    <vehicle id="v_259" type="type" route="leftRight" depart="1373" />
    <vehicle id="v_260" type="type" route="downUp" depart="1396" />
    <vehicle id="v_261" type="type" route="downUp" depart="1399" />
    <vehicle id="v_262" type="type" route="rightLeft" depart="1401" />
    <vehicle id="v_263" type="type" route="rightLeft" depart="1404" />
    <vehicle id="v_264" type="type" route="upDown" depart="1411" />
    <vehicle id="v_265" type="type" route="downUp" depart="1423" />
    <vehicle id="v_266" type="type" route="rightUp" depart="1425" />
    <vehicle id="v_267" type="type" route="leftRight" depart="1438" />
    <vehicle id="v_268" type="type" route="rightLeft" depart="1446" />
    <vehicle id="v_269" type="type" route="upRight" depart="1449" />
    <vehicle id="v_270" type="type" route="rightLeft" depart="1456" />
    <vehicle id="v_271" type="type" route="downUp" depart="1462" />
    <vehicle id="v_272" type="type" route="downUp" depart="1481" />
    <vehicle id="v_273" type="type" route="upDown" depart="1483" />
    <vehicle id="v_274" type="type" route="rightUp" depart="1489" />
    <vehicle id="v_275" type="type" route="rightDown" depart="1490" />
    <vehicle id="v_276" type="type" route="leftRight" depart="1493" />
    <vehicle id="v_277" type="type" route="leftDown" depart="1500" />
    <vehicle id="v_278" type="type" route="leftUp" depart="1506" />
    <vehicle id="v_279" type="type" route="upRight" depart="1516" />
    <vehicle id="v_280" type="type" route="leftDown" depart="1518" />
    <vehicle id="v_281" type="type" route="leftDown" depart="1530" />
    <vehicle id="v_282" type="type" route="upDown" depart="1538" />
    <vehicle id="v_283" type="type" route="leftRight" depart="1542" />
    <vehicle id="v_284" type="type" route="upRight" depart="1561" />
    <vehicle id="v_285" type="type" route="downUp" depart="1565" />
    <vehicle id="v_286" type="type" route="rightUp" depart="1570" />
    <vehicle id="v_287" type="type" route="leftRight" depart="1575" />
    <vehicle id="v_288" type="type" route="downUp" depart="1576" />
    <vehicle id="v_289" type="type" route="downUp" depart="1582" />
    <vehicle id="v_290" type="type" route="rightDown" depart="1586" />
    <vehicle id="v_291" type="type" route="upDown" depart="1588" />
    <vehicle id="v_292" type="type" route="leftRight" depart="1597" />
    <vehicle id="v_293" type="type" route="rightUp" depart="1602" />
    <vehicle id="v_294" type="type" route="upRight" depart="1602" />
    <vehicle id="v_295" type="type" route="rightUp" depart="1610" />
    <vehicle id="v_296" type="type" route="rightUp" depart="1614" />
    <vehicle id="v_297" type="type" route="upDown" depart="1614" />
    <vehicle id="v_298" type="type" route="upRight" depart="1617" />
    <vehicle id="v_299" type="type" route="rightLeft" depart="1620" />
    <vehicle id="v_300" type="type" route="downUp" depart="1626" />
    <vehicle id="v_301" type="type" route="downRight" depart="1634" />
    <vehicle id="v_302" type="type" route="upRight" depart="1636" />
    <vehicle id="v_303" type="type" route="upDown" depart="1638" />
    <vehicle id="v_304" type="type" route="leftRight" depart="1642" />
    <vehicle id="v_305" type="type" route="downRight" depart="1651" />
    <vehicle id="v_306" type="type" route="rightLeft" depart="1652" />
    <vehicle id="v_307" type="type" route="downUp" depart="1657" />
    <vehicle id="v_308" type="type" route="leftRight" depart="1661" />
    <vehicle id="v_309" type="type" route="upDown" depart="1664" />
    <vehicle id="v_310" type="type" route="rightLeft" depart="1667" />
    <vehicle id="v_311" type="type" route="downRight" depart="1682" />
    <vehicle id="v_312" type="type" route="downLeft" depart="1684" />
    <vehicle id="v_313" type="type" route="downUp" depart="1697" />
    <vehicle id="v_314" type="type" route="downLeft" depart="1699" />
    <vehicle id="v_315" type="type" route="rightLeft" depart="1700" />
    <vehicle id="v_316" type="type" route="rightUp" depart="1704" />
    <vehicle id="v_317" type="type" route="upDown" depart="1714" />
    <vehicle id="v_318" type="type" route="upDown" depart="1715" />
    <vehicle id="v_319" type="type" route="leftUp" depart="1717" />
    <vehicle id="v_320" type="type" route="rightLeft" depart="1723" />
    <vehicle id="v_321" type="type" route="leftRight" depart="1723" />
    <vehicle id="v_322" type="type" route="upDown" depart="1726" />
    <vehicle id="v_323" type="type" route="downUp" depart="1728" />
    <vehicle id="v_324" type="type" route="downUp" depart="1729" />
    <vehicle id="v_325" type="type" route="upLeft" depart="1744" />
    <vehicle id="v_326" type="type" route="rightLeft" depart="1745" />
    <vehicle id="v_327" type="type" route="upLeft" depart="1752" />
    <vehicle id="v_328" type="type" route="downUp" depart="1756" />
    <vehicle id="v_329" type="type" route="leftRight" depart="1765" />
    <vehicle id="v_330" type="type" route="leftRight" depart="1771" />
    <vehicle id="v_331" type="type" route="downUp" depart="1771" />
    <vehicle id="v_332" type="type" route="rightUp" depart="1775" />
    <vehicle id="v_333" type="type" route="upRight" depart="1776" />
    <vehicle id="v_334" type="type" route="upDown" depart="1778" />
    <vehicle id="v_335" type="type" route="downUp" depart="1778" />
    <vehicle id="v_336" type="type" route="downUp" depart="1784" />
    <vehicle id="v_337" type="type" route="leftRight" depart="1792" />
    <vehicle id="v_338" type="type" route="upLeft" depart="1801" />
    <vehicle id="v_339" type="type" route="leftRight" depart="1804" />
    <vehicle id="v_340" type="type" route="leftUp" depart="1812" />
    <vehicle id="v_341" type="type" route="downUp" depart="1814" />
    <vehicle id="v_342" type="type" route="rightLeft" depart="1820" />
    <vehicle id="v_343" type="type" route="rightUp" depart="1828" />
    <vehicle id="v_344" type="type" route="rightUp" depart="1842" />
    <vehicle id="v_345" type="type" route="upRight" depart="1845" />
    <vehicle id="v_346" type="type" route="downUp" depart="1847" />
    <vehicle id="v_347" type="type" route="leftUp" depart="1850" />
    <vehicle id="v_348" type="type" route="leftDown" depart="1870" />
    <vehicle id="v_349" type="type" route="leftDown" depart="1873" />
    <vehicle id="v_350" type="type" route="downLeft" depart="1876" />
    <vehicle id="v_351" type="type" route="rightLeft" depart="1885" />
    <vehicle id="v_352" type="type" route="upDown" depart="1889" />
    <vehicle id="v_353" type="type" route="rightDown" depart="1892" />
    <vehicle id="v_354" type="type" route="rightLeft" depart="1896" />
    <vehicle id="v_355" type="type" route="rightLeft" depart="1899" />
    <vehicle id="v_356" type="type" route="leftRight" depart="1906" />
    <vehicle id="v_357" type="type" route="rightLeft" depart="1915" />
    <vehicle id="v_358" type="type" route="rightLeft" depart="1916" />
    <vehicle id="v_359" type="type" route="upDown" depart="1925" />
    <vehicle id="v_360" type="type" route="leftUp" depart="1925" />
    <vehicle id="v_361" type="type" route="downRight" depart="1944" />
    <vehicle id="v_362" type="type" route="upDown" depart="1964" />
    <vehicle id="v_363" type="type" route="rightLeft" depart="1969" />
    <vehicle id="v_364" type="type" route="rightLeft" depart="1974" />
    <vehicle id="v_365" type="type" route="rightLeft" depart="1978" />
    <vehicle id="v_366" type="type" route="downLeft" depart="1983" />
    <vehicle id="v_367" type="type" route="upLeft" depart="1985" />
    <vehicle id="v_368" type="type" route="upDown" depart="1997" />
    <vehicle id="v_369" type="type" route="upDown" depart="2000" />
    <vehicle id="v_370" type="type" route="rightLeft" depart="2007" />
    <vehicle id="v_371" type="type" route="rightLeft" depart="2029" />
    <vehicle id="v_372" type="type" route="downLeft" depart="2030" />
    <vehicle id="v_373" type="type" route="downUp" depart="2037" />
    <vehicle id="v_374" type="type" route="rightUp" depart="2043" />
    <vehicle id="v_375" type="type" route="rightDown" depart="2051" />
    <vehicle id="v_376" type="type" route="rightUp" depart="2056" />
    <vehicle id="v_377" type="type" route="rightLeft" depart="2059" />
    <vehicle id="v_378" type="type" route="rightLeft" depart="2066" />
    <vehicle id="v_379" type="type" route="downUp" depart="2069" />
    <vehicle id="v_380" type="type" route="leftRight" depart="2070" />
    <vehicle id="v_381" type="type" route="leftRight" depart="2077" />
    <vehicle id="v_382" type="type" route="downRight" depart="2077" />
    <vehicle id="v_383" type="type" route="rightLeft" depart="2080" />
    <vehicle id="v_384" type="type" route="downRight" depart="2091" />
    <vehicle id="v_385" type="type" route="leftUp" depart="2095" />
    <vehicle id="v_386" type="type" route="upLeft" depart="2096" />
    <vehicle id="v_387" type="type" route="upDown" depart="2097" />
    <vehicle id="v_388" type="type" route="upDown" depart="2103" />
    <vehicle id="v_389" type="type" route="upDown" depart="2112" />
    <vehicle id="v_390" type="type" route="downLeft" depart="2121" />
    <vehicle id="v_391" type="type" route="rightLeft" depart="2122" />
    <vehicle id="v_392" type="type" route="rightDown" depart="2127" />
    <vehicle id="v_393" type="type" route="downUp" depart="2128" />
    <vehicle id="v_394" type="type" route="upDown" depart="2133" />
    <vehicle id="v_395" type="type" route="downUp" depart="2133" />
    <vehicle id="v_396" type="type" route="upLeft" depart="2142" />
    <vehicle id="v_397" type="type" route="upLeft" depart="2144" />
    <vehicle id="v_398" type="type" route="leftRight" depart="2145" />
    <vehicle id="v_399" type="type" route="rightLeft" depart="2146" />
    <vehicle id="v_400" type="type" route="upDown" depart="2164" />
    <vehicle id="v_401" type="type" route="rightDown" depart="2169" />
    <vehicle id="v_402" type="type" route="upRight" depart="2175" />
    <vehicle id="v_403" type="type" route="upDown" depart="2176" />
    <vehicle id="v_404" type="type" route="upDown" depart="2185" />
    <vehicle id="v_405" type="type" route="rightLeft" depart="2190" />
    <vehicle id="v_406" type="type" route="rightLeft" depart="2194" />
    <vehicle id="v_407" type="type" route="upDown" depart="2194" />
    <vehicle id="v_408" type="type" route="leftRight" depart="2203" />
    <vehicle id="v_409" type="type" route="rightLeft" depart="2207" />
    <vehicle id="v_410" type="type" route="downRight" depart="2209" />
    <vehicle id="v_411" type="type" route="rightLeft" depart="2219" />
    <vehicle id="v_412" type="type" route="downRight" depart="2227" />
    <vehicle id="v_413" type="type" route="rightLeft" depart="2230" />
    <vehicle id="v_414" type="type" route="downLeft" depart="2230" />
    <vehicle id="v_415" type="type" route="rightUp" depart="2233" />
    <vehicle id="v_416" type="type" route="rightLeft" depart="2244" />
    <vehicle id="v_417" type="type" route="downUp" depart="2245" />
    <vehicle id="v_418" type="type" route="upLeft" depart="2248" />
    <vehicle id="v_419" type="type" route="rightLeft" depart="2258" />
    <vehicle id="v_420" type="type" route="downRight" depart="2262" />
    <vehicle id="v_421" type="type" route="rightUp" depart="2263" />