<routes>
                <vType id="type" accel="0.8" decel="4.5" sigma="0.5" length="5" minGap="2.5" maxSpeed="16.67"         guiShape="passenger"/>
        
                <route id="ul" edges="54o 4i 1o 51i" />
                <route id="ud" edges="54o 4i 1o 51i" />
                <route id="ur" edges="54o 4i 3o 53i" />
                <route id="ru" edges="52o 2i 4o 54i" />
                <route id="rl" edges="52o 2i 1o 51i" />
                <route id="rd" edges="52o 2i 3o 53i" />
                <route id="dr" edges="53o 3i 2o 52i" />
                <route id="du" edges="53o 3i 4o 54i" />
                <route id="dl" edges="53o 3i 1o 51i" />
                <route id="ld" edges="51o 1i 3o 53i" />
                <route id="lr" edges="51o 1i 2o 52i" />
                <route id="lu" edges="51o 1i 4o 54i" />
    <vehicle id="v_0" type="type" route="rl" depart="1" />
    <vehicle id="v_1" type="type" route="ud" depart="8" />
    <vehicle id="v_2" type="type" route="ru" depart="11" />
    <vehicle id="v_3" type="type" route="du" depart="29" />
    <vehicle id="v_4" type="type" route="ru" depart="39" />
    <vehicle id="v_5" type="type" route="lr" depart="52" />
    <vehicle id="v_6" type="type" route="rd" depart="64" />
    <vehicle id="v_7" type="type" route="ld" depart="66" />
    <vehicle id="v_8" type="type" route="ul" depart="83" />
    <vehicle id="v_9" type="type" route="lu" depart="103" />
    <vehicle id="v_10" type="type" route="rd" depart="118" />
    <vehicle id="v_11" type="type" route="lu" depart="127" />
    <vehicle id="v_12" type="type" route="dl" depart="129" />
    <vehicle id="v_13" type="type" route="lr" depart="152" />
    <vehicle id="v_14" type="type" route="ud" depart="153" />
    <vehicle id="v_15" type="type" route="ru" depart="156" />
    <vehicle id="v_16" type="type" route="lr" depart="166" />
    <vehicle id="v_17" type="type" route="dr" depart="173" />
    <vehicle id="v_18" type="type" route="dl" depart="183" />
    <vehicle id="v_19" type="type" route="lr" depart="184" />
    <vehicle id="v_20" type="type" route="dr" depart="194" />
    <vehicle id="v_21" type="type" route="dr" depart="195" />
    <vehicle id="v_22" type="type" route="ld" depart="210" />
    <vehicle id="v_23" type="type" route="dl" depart="214" />
    <vehicle id="v_24" type="type" route="ur" depart="215" />
    <vehicle id="v_25" type="type" route="ud" depart="216" />
    <vehicle id="v_26" type="type" route="du" depart="236" />
    <vehicle id="v_27" type="type" route="dl" depart="239" />
    <vehicle id="v_28" type="type" route="dl" depart="252" />
    <vehicle id="v_29" type="type" route="dr" depart="269" />
    <vehicle id="v_30" type="type" route="rd" depart="271" />
    <vehicle id="v_31" type="type" route="ud" depart="278" />
    <vehicle id="v_32" type="type" route="rd" depart="282" />
    <vehicle id="v_33" type="type" route="lu" depart="304" />
    <vehicle id="v_34" type="type" route="du" depart="314" />
    <vehicle id="v_35" type="type" route="ru" depart="321" />
    <vehicle id="v_36" type="type" route="rl" depart="324" />
    <vehicle id="v_37" type="type" route="rl" depart="330" />
    <vehicle id="v_38" type="type" route="dl" depart="344" />
    <vehicle id="v_39" type="type" route="ru" depart="384" />
    <vehicle id="v_40" type="type" route="ru" depart="388" />
    <vehicle id="v_41" type="type" route="ur" depart="437" />
    <vehicle id="v_42" type="type" route="dr" depart="441" />
    <vehicle id="v_43" type="type" route="dr" depart="444" />
    <vehicle id="v_44" type="type" route="ld" depart="448" />
    <vehicle id="v_45" type="type" route="rd" depart="450" />
    <vehicle id="v_46" type="type" route="dr" depart="473" />
    <vehicle id="v_47" type="type" route="dr" depart="476" />
    <vehicle id="v_48" type="type" route="rd" depart="487" />
    <vehicle id="v_49" type="type" route="lr" depart="489" />
    <vehicle id="v_50" type="type" route="ul" depart="490" />
    <vehicle id="v_51" type="type" route="ur" depart="493" />
    <vehicle id="v_52" type="type" route="dl" depart="523" />
    <vehicle id="v_53" type="type" route="du" depart="547" />
    <vehicle id="v_54" type="type" route="rd" depart="552" />
    <vehicle id="v_55" type="type" route="ru" depart="560" />
    <vehicle id="v_56" type="type" route="lu" depart="561" />
    <vehicle id="v_57" type="type" route="rl" depart="568" />
    <vehicle id="v_58" type="type" route="dl" depart="597" />
    <vehicle id="v_59" type="type" route="ul" depart="599" />
    <vehicle id="v_60" type="type" route="du" depart="610" />
    <vehicle id="v_61" type="type" route="du" depart="612" />
    <vehicle id="v_62" type="type" route="lr" depart="613" />
    <vehicle id="v_63" type="type" route="ru" depart="618" />
    <vehicle id="v_64" type="type" route="ul" depart="639" />
    <vehicle id="v_65" type="type" route="rl" depart="643" />
    <vehicle id="v_66" type="type" route="ur" depart="658" />
    <vehicle id="v_67" type="type" route="ru" depart="674" />
    <vehicle id="v_68" type="type" route="ur" depart="682" />
    <vehicle id="v_69" type="type" route="rd" depart="690" />
    <vehicle id="v_70" type="type" route="ud" depart="700" />
    <vehicle id="v_71" type="type" route="ud" depart="727" />
    <vehicle id="v_72" type="type" route="lu" depart="767" />
    <vehicle id="v_73" type="type" route="du" depart="781" />
    <vehicle id="v_74" type="type" route="ur" depart="782" />
    <vehicle id="v_75" type="type" route="ud" depart="799" />
    <vehicle id="v_76" type="type" route="ud" depart="804" />
    <vehicle id="v_77" type="type" route="rd" depart="810" />
    <vehicle id="v_78" type="type" route="dr" depart="819" />
    <vehicle id="v_79" type="type" route="du" depart="827" />
    <vehicle id="v_80" type="type" route="ld" depart="852" />
    <vehicle id="v_81" type="type" route="lr" depart="866" />
    <vehicle id="v_82" type="type" route="rl" depart="872" />
    <vehicle id="v_83" type="type" route="ru" depart="889" />
    <vehicle id="v_84" type="type" route="dl" depart="897" />
    <vehicle id="v_85" type="type" route="ul" depart="917" />
    <vehicle id="v_86" type="type" route="dl" depart="920" />
    <vehicle id="v_87" type="type" route="du" depart="930" />
    <vehicle id="v_88" type="type" route="rl" depart="943" />
    <vehicle id="v_89" type="type" route="rd" depart="951" />
    <vehicle id="v_90" type="type" route="dl" depart="955" />
    <vehicle id="v_91" type="type" route="ur" depart="962" />
    <vehicle id="v_92" type="type" route="rl" depart="972" />
    <vehicle id="v_93" type="type" route="lu" depart="973" />
    <vehicle id="v_94" type="type" route="du" depart="976" />
    <vehicle id="v_95" type="type" route="lr" depart="982" />
    <vehicle id="v_96" type="type" route="du" depart="986" />
    <vehicle id="v_97" type="type" route="ud" depart="1022" />
    <vehicle id="v_98" type="type" route="ud" depart="1023" />
    <vehicle id="v_99" type="type" route="dl" depart="1027" />
    <vehicle id="v_100" type="type" route="rl" depart="1035" />
    <vehicle id="v_101" type="type" route="lr" depart="1053" />
    <vehicle id="v_102" type="type" route="ur" depart="1060" />
    <vehicle id="v_103" type="type" route="lu" depart="1065" />
    <vehicle id="v_104" type="type" route="ud" depart="1077" />
    <vehicle id="v_105" type="type" route="dr" depart="1090" />
    <vehicle id="v_106" type="type" route="ru" depart="1092" />
    <vehicle id="v_107" type="type" route="lu" depart="1098" />
    <vehicle id="v_108" type="type" route="rd" depart="1110" />
    <vehicle id="v_109" type="type" route="rd" depart="1116" />
    <vehicle id="v_110" type="type" route="rl" depart="1126" />
    <vehicle id="v_111" type="type" route="lr" depart="1130" />
    <vehicle id="v_112" type="type" route="du" depart="1157" />
    <vehicle id="v_113" type="type" route="du" depart="1162" />
    <vehicle id="v_114" type="type" route="rl" depart="1164" />
    <vehicle id="v_115" type="type" route="ud" depart="1165" />
    <vehicle id="v_116" type="type" route="ud" depart="1178" />
    <vehicle id="v_117" type="type" route="lr" depart="1182" />
    <vehicle id="v_118" type="type" route="ud" depart="1196" />
    <vehicle id="v_119" type="type" route="lr" depart="1204" />
    <vehicle id="v_120" type="type" route="ud" depart="1231" />
    <vehicle id="v_121" type="type" route="rd" depart="1246" />
    <vehicle id="v_122" type="type" route="ul" depart="1286" />
    <vehicle id="v_123" type="type" route="ru" depart="1290" />
    <vehicle id="v_124" type="type" route="ud" depart="1291" />
    <vehicle id="v_125" type="type" route="ud" depart="1302" />
    <vehicle id="v_126" type="type" route="ru" depart="1303" />
    <vehicle id="v_127" type="type" route="dr" depart="1311" />
    <vehicle id="v_128" type="type" route="du" depart="1314" />
    <vehicle id="v_129" type="type" route="dl" depart="1316" />
    <vehicle id="v_130" type="type" route="rd" depart="1320" />
    <vehicle id="v_131" type="type" route="rd" depart="1324" />
    <vehicle id="v_132" type="type" route="dl" depart="1325" />
    <vehicle id="v_133" type="type" route="du" depart="1329" />
    <vehicle id="v_134" type="type" route="dr" depart="1330" />
    <vehicle id="v_135" type="type" route="ud" depart="1333" />
    <vehicle id="v_136" type="type" route="dl" depart="1340" />
    <vehicle id="v_137" type="type" route="ru" depart="1351" />
    <vehicle id="v_138" type="type" route="ru" depart="1352" />
    <vehicle id="v_139" type="type" route="lr" depart="1359" />
    <vehicle id="v_140" type="type" route="ld" depart="1378" />
    <vehicle id="v_141" type="type" route="lr" depart="1396" />
    <vehicle id="v_142" type="type" route="ud" depart="1405" />
    <vehicle id="v_143" type="type" route="ur" depart="1410" />
    <vehicle id="v_144" type="type" route="lr" depart="1437" />
    <vehicle id="v_145" type="type" route="dr" depart="1461" />
    <vehicle id="v_146" type="type" route="rd" depart="1467" />
    <vehicle id="v_147" type="type" route="ud" depart="1479" />
    <vehicle id="v_148" type="type" route="ru" depart="1488" />
    <vehicle id="v_149" type="type" route="ul" depart="1504" />
    <vehicle id="v_150" type="type" route="lr" depart="1511" />
    <vehicle id="v_151" type="type" route="dr" depart="1537" />
    <vehicle id="v_152" type="type" route="dr" depart="1551" />
    <vehicle id="v_153" type="type" route="du" depart="1556" />
    <vehicle id="v_154" type="type" route="ud" depart="1561" />
    <vehicle id="v_155" type="type" route="dl" depart="1571" />
    <vehicle id="v_156" type="type" route="rd" depart="1578" />
    <vehicle id="v_157" type="type" route="ur" depart="1586" />
    <vehicle id="v_158" type="type" route="rd" depart="1604" />
    <vehicle id="v_159" type="type" route="du" depart="1611" />
    <vehicle id="v_160" type="type" route="du" depart="1617" />
    <vehicle id="v_161" type="type" route="lu" depart="1624" />
    <vehicle id="v_162" type="type" route="rd" depart="1626" />
    <vehicle id="v_163" type="type" route="lu" depart="1672" />
    <vehicle id="v_164" type="type" route="du" depart="1673" />
    <vehicle id="v_165" type="type" route="dl" depart="1684" />
    <vehicle id="v_166" type="type" route="ud" depart="1702" />
    <vehicle id="v_167" type="type" route="ur" depart="1707" />
    <vehicle id="v_168" type="type" route="dr" depart="1711" />
    <vehicle id="v_169" type="type" route="rl" depart="1717" />
    <vehicle id="v_170" type="type" route="lr" depart="1743" />
    <vehicle id="v_171" type="type" route="ur" depart="1744" />
    <vehicle id="v_172" type="type" route="dr" depart="1747" />
    <vehicle id="v_173" type="type" route="lr" depart="1753" />
    <vehicle id="v_174" type="type" route="ur" depart="1799" />
    <vehicle id="v_175" type="type" route="du" depart="1802" />
    <vehicle id="v_176" type="type" route="rl" depart="1805" />
    <vehicle id="v_177" type="type" route="rd" depart="1809" />
    <vehicle id="v_178" type="type" route="ud" depart="1812" />
    <vehicle id="v_179" type="type" route="lr" depart="1826" />
    <vehicle id="v_180" type="type" route="lr" depart="1848" />
    <vehicle id="v_181" type="type" route="ru" depart="1852" />
    <vehicle id="v_182" type="type" route="ld" depart="1853" />
    <vehicle id="v_183" type="type" route="ld" depart="1854" />
    <vehicle id="v_184" type="type" route="du" depart="1858" />
    <vehicle id="v_185" type="type" route="dl" depart="1862" />
    <vehicle id="v_186" type="type" route="rd" depart="1882" />
    <vehicle id="v_187" type="type" route="lu" depart="1906" />
    <vehicle id="v_188" type="type" route="dr" depart="1908" />
    <vehicle id="v_189" type="type" route="ru" depart="1920" />
    <vehicle id="v_190" type="type" route="lu" depart="1937" />
    <vehicle id="v_191" type="type" route="ul" depart="1970" />
    <vehicle id="v_192" type="type" route="lr" depart="1972" />
    <vehicle id="v_193" type="type" route="ul" depart="1973" />
    <vehicle id="v_194" type="type" route="dl" depart="1978" />
    <vehicle id="v_195" type="type" route="lr" depart="1980" />
    <vehicle id="v_196" type="type" route="dl" depart="1985" />
    <vehicle id="v_197" type="type" route="lu" depart="1987" />
    <vehicle id="v_198" type="type" route="lu" depart="1990" />
    <vehicle id="v_199" type="type" route="ur" depart="1995" />
    <vehicle id="v_200" type="type" route="dr" depart="2001" />
    <vehicle id="v_201" type="type" route="lr" depart="2007" />
    <vehicle id="v_202" type="type" route="dr" depart="2009" />
    <vehicle id="v_203" type="type" route="dr" depart="2014" />
    <vehicle id="v_204" type="type" route="ru" depart="2033" />
    <vehicle id="v_205" type="type" route="ur" depart="2038" />
    <vehicle id="v_206" type="type" route="lu" depart="2048" />
    <vehicle id="v_207" type="type" route="dr" depart="2050" />
    <vehicle id="v_208" type="type" route="ld" depart="2052" />
    <vehicle id="v_209" type="type" route="rl" depart="2057" />
    <vehicle id="v_210" type="type" route="rl" depart="2069" />
    <vehicle id="v_211" type="type" route="rl" depart="2076" />
    <vehicle id="v_212" type="type" route="dr" depart="2080" />
    <vehicle id="v_213" type="type" route="rd" depart="2084" />
    <vehicle id="v_214" type="type" route="dr" depart="2089" />
    <vehicle id="v_215" type="type" route="dl" depart="2091" />
    <vehicle id="v_216" type="type" route="dr" depart="2100" />
    <vehicle id="v_217" type="type" route="dr" depart="2111" />
    <vehicle id="v_218" type="type" route="ld" depart="2156" />
    <vehicle id="v_219" type="type" route="ru" depart="2168" />
    <vehicle id="v_220" type="type" route="lr" depart="2172" />
    <vehicle id="v_221" type="type" route="rl" depart="2178" />
    <vehicle id="v_222" type="type" route="lu" depart="2193" />
    <vehicle id="v_223" type="type" route="ld" depart="2221" />
    <vehicle id="v_224" type="type" route="ru" depart="2225" />
    <vehicle id="v_225" type="type" route="ud" depart="2229" />
    <vehicle id="v_226" type="type" route="ru" depart="2284" />
    <vehicle id="v_227" type="type" route="lu" depart="2297" />
    <vehicle id="v_228" type="type" route="rl" depart="2305" />
    <vehicle id="v_229" type="type" route="rd" depart="2321" />
    <vehicle id="v_230" type="type" route="rl" depart="2335" />
    <vehicle id="v_231" type="type" route="dl" depart="2351" />
    <vehicle id="v_232" type="type" route="du" depart="2360" />
    <vehicle id="v_233" type="type" route="lr" depart="2377" />
    <vehicle id="v_234" type="type" route="dr" depart="2383" />
    <vehicle id="v_235" type="type" route="du" depart="2402" />
    <vehicle id="v_236" type="type" route="ld" depart="2403" />
    <vehicle id="v_237" type="type" route="lu" depart="2406" />
    <vehicle id="v_238" type="type" route="ud" depart="2413" />
    <vehicle id="v_239" type="type" route="ld" depart="2422" />
    <vehicle id="v_240" type="type" route="lr" depart="2423" />
    <vehicle id="v_241" type="type" route="lr" depart="2446" />
    <vehicle id="v_242" type="type" route="ul" depart="2459" />
    <vehicle id="v_243" type="type" route="ud" depart="2470" />
    <vehicle id="v_244" type="type" route="ru" depart="2471" />
    <vehicle id="v_245" type="type" route="ul" depart="2472" />
    <vehicle id="v_246" type="type" route="ud" depart="2483" />
    <vehicle id="v_247" type="type" route="lu" depart="2492" />
    <vehicle id="v_248" type="type" route="lr" depart="2500" />
    <vehicle id="v_249" type="type" route="dr" depart="2517" />
    <vehicle id="v_250" type="type" route="lu" depart="2519" />
    <vehicle id="v_251" type="type" route="ld" depart="2524" />
    <vehicle id="v_252" type="type" route="ul" depart="2532" />
    <vehicle id="v_253" type="type" route="rd" depart="2547" />
    <vehicle id="v_254" type="type" route="ru" depart="2550" />
    <vehicle id="v_255" type="type" route="du" depart="2554" />
    <vehicle id="v_256" type="type" route="du" depart="2558" />
    <vehicle id="v_257" type="type" route="ru" depart="2559" />
    <vehicle id="v_258" type="type" route="dl" depart="2573" />
    <vehicle id="v_259" type="type" route="lr" depart="2578" />
    <vehicle id="v_260" type="type" route="ru" depart="2589" />
    <vehicle id="v_261" type="type" route="ud" depart="2595" />
    <vehicle id="v_262" type="type" route="lr" depart="2600" />
    <vehicle id="v_263" type="type" route="ru" depart="2610" />
    <vehicle id="v_264" type="type" route="lr" depart="2623" />
    <vehicle id="v_265" type="type" route="rl" depart="2633" />
    <vehicle id="v_266" type="type" route="dr" depart="2636" />
    <vehicle id="v_267" type="type" route="ud" depart="2640" />
    <vehicle id="v_268" type="type" route="ru" depart="2643" />
    <vehicle id="v_269" type="type" route="ud" depart="2652" />
    <vehicle id="v_270" type="type" route="rd" depart="2656" />
    <vehicle id="v_271" type="type" route="ld" depart="2659" />
    <vehicle id="v_272" type="type" route="dr" depart="2676" />
    <vehicle id="v_273" type="type" route="du" depart="2697" />
    <vehicle id="v_274" type="type" route="ru" depart="2707" />
    <vehicle id="v_275" type="type" route="ul" depart="2729" />
    <vehicle id="v_276" type="type" route="ld" depart="2733" />
    <vehicle id="v_277" type="type" route="ld" depart="2740" />
    <vehicle id="v_278" type="type" route="lu" depart="2746" />
    <vehicle id="v_279" type="type" route="ld" depart="2774" />
    <vehicle id="v_280" type="type" route="rd" depart="2782" />
    <vehicle id="v_281" type="type" route="lu" depart="2786" />
    <vehicle id="v_282" type="type" route="ru" depart="2790" />
    <vehicle id="v_283" type="type" route="rl" depart="2792" />
    <vehicle id="v_284" type="type" route="du" depart="2795" />
    <vehicle id="v_285" type="type" route="ul" depart="2808" />
    <vehicle id="v_286" type="type" route="ur" depart="2812" />
    <vehicle id="v_287" type="type" route="ud" depart="2815" />
    <vehicle id="v_288" type="type" route="rd" depart="2824" />
    <vehicle id="v_289" type="type" route="ld" depart="2833" />
    <vehicle id="v_290" type="type" route="ul" depart="2836" />
    <vehicle id="v_291" type="type" route="ur" depart="2842" />
    <vehicle id="v_292" type="type" route="du" depart="2856" />
    <vehicle id="v_293" type="type" route="lu" depart="2860" />
    <vehicle id="v_294" type="type" route="rd" depart="2862" />
    <vehicle id="v_295" type="type" route="dr" depart="2867" />
    <vehicle id="v_296" type="type" route="lu" depart="2875" />
    <vehicle id="v_297" type="type" route="ld" depart="2876" />
    <vehicle id="v_298" type="type" route="dr" depart="2897" />
    <vehicle id="v_299" type="type" route="lu" depart="2903" />
    <vehicle id="v_300" type="type" route="rl" depart="2922" />
    <vehicle id="v_301" type="type" route="du" depart="2930" />
    <vehicle id="v_302" type="type" route="rl" depart="2933" />
    <vehicle id="v_303" type="type" route="du" depart="2946" />
    <vehicle id="v_304" type="type" route="ru" depart="2960" />
    <vehicle id="v_305" type="type" route="ul" depart="2963" />
    <vehicle id="v_306" type="type" route="rd" depart="2972" />
    <vehicle id="v_307" type="type" route="ul" depart="2982" />
    <vehicle id="v_308" type="type" route="lr" depart="2992" />
    <vehicle id="v_309" type="type" route="ur" depart="2993" />
    <vehicle id="v_310" type="type" route="rl" depart="2996" />
    <vehicle id="v_311" type="type" route="lr" depart="3010" />
    <vehicle id="v_312" type="type" route="ld" depart="3028" />
    <vehicle id="v_313" type="type" route="du" depart="3032" />
    <vehicle id="v_314" type="type" route="lu" depart="3037" />
    <vehicle id="v_315" type="type" route="lr" depart="3069" />
    <vehicle id="v_316" type="type" route="ru" depart="3072" />
    <vehicle id="v_317" type="type" route="ur" depart="3077" />
    <vehicle id="v_318" type="type" route="rl" depart="3091" />
    <vehicle id="v_319" type="type" route="dl" depart="3103" />
    <vehicle id="v_320" type="type" route="rd" depart="3106" />
    <vehicle id="v_321" type="type" route="ul" depart="3109" />
    <vehicle id="v_322" type="type" route="lr" depart="3141" />
    <vehicle id="v_323" type="type" route="ul" depart="3144" />
    <vehicle id="v_324" type="type" route="lu" depart="3147" />
    <vehicle id="v_325" type="type" route="dr" depart="3155" />
    <vehicle id="v_326" type="type" route="du" depart="3174" />
    <vehicle id="v_327" type="type" route="ud" depart="3179" />
    <vehicle id="v_328" type="type" route="dl" depart="3184" />
    <vehicle id="v_329" type="type" route="lu" depart="3185" />
    <vehicle id="v_330" type="type" route="ur" depart="3192" />
    <vehicle id="v_331" type="type" route="ur" depart="3201" />
    <vehicle id="v_332" type="type" route="rd" depart="3208" />
    <vehicle id="v_333" type="type" route="ur" depart="3220" />
    <vehicle id="v_334" type="type" route="lr" depart="3237" />
    <vehicle id="v_335" type="type" route="lr" depart="3249" />
    <vehicle id="v_336" type="type" route="ur" depart="3258" />
    <vehicle id="v_337" type="type" route="du" depart="3271" />
    <vehicle id="v_338" type="type" route="ud" depart="3282" />
    <vehicle id="v_339" type="type" route="lr" depart="3300" />
    <vehicle id="v_340" type="type" route="ur" depart="3308" />
    <vehicle id="v_341" type="type" route="lr" depart="3322" />
    <vehicle id="v_342" type="type" route="dr" depart="3332" />
    <vehicle id="v_343" type="type" route="ur" depart="3386" />
    <vehicle id="v_344" type="type" route="ul" depart="3387" />
    <vehicle id="v_345" type="type" route="du" depart="3397" />
    <vehicle id="v_346" type="type" route="rl" depart="3415" />
    <vehicle id="v_347" type="type" route="ur" depart="3431" />
    <vehicle id="v_348" type="type" route="rl" depart="3434" />
    <vehicle id="v_349" type="type" route="lr" depart="3444" />
    <vehicle id="v_350" type="type" route="dl" depart="3454" />
    <vehicle id="v_351" type="type" route="rd" depart="3475" />
    <vehicle id="v_352" type="type" route="dl" depart="3481" />
    <vehicle id="v_353" type="type" route="lr" depart="3486" />
    <vehicle id="v_354" type="type" route="ud" depart="3493" />
    <vehicle id="v_355" type="type" route="lr" depart="3505" />
    <vehicle id="v_356" type="type" route="ul" depart="3509" />
    <vehicle id="v_357" type="type" route="ru" depart="3512" />
    <vehicle id="v_358" type="type" route="lu" depart="3520" />
    <vehicle id="v_359" type="type" route="dl" depart="3525" />
    <vehicle id="v_360" type="type" route="du" depart="3529" />
    <vehicle id="v_361" type="type" route="ur" depart="3532" />
    <vehicle id="v_362" type="type" route="ld" depart="3549" />
    <vehicle id="v_363" type="type" route="ru" depart="3552" />
    <vehicle id="v_364" type="type" route="ud" depart="3572" />
    <vehicle id="v_365" type="type" route="ru" depart="3580" />
    <vehicle id="v_366" type="type" route="ru" depart="3590" />
</routes>
