<routes>
                <vType id="type" accel="0.8" decel="4.5" sigma="0.5" length="5" minGap="2.5" maxSpeed="16.67"         guiShape="passenger"/>
                
                <route id="rightUp" edges="51i 1i 2o 52o" />
                <route id="rightLeft" edges="51i 1i 3o 53o" />
                <route id="rightDown" edges="51i 1i 4o 54o" />
                <route id="upRight" edges="52i 2i 1o 51o" />
                <route id="upLeft" edges="52i 2i 3o 53o" />
                <route id="upDown" edges="52i 2i 4o 54o" />                
                <route id="leftRight" edges="53i 3i 1o 51o" />
                <route id="leftUp" edges="53i 3i 2o 52o" />
                <route id="leftDown" edges="53i 3i 4o 54o" />
                <route id="downRight" edges="54i 4i 1o 51o" />
                <route id="downUp" edges="54i 4i 2o 52o" />
                <route id="downLeft" edges="54i 4i 3o 53o" />
    <vehicle id="v_0" type="type" route="upLeft" depart="0" />
    <vehicle id="v_1" type="type" route="leftRight" depart="1" />
    <vehicle id="v_2" type="type" route="downUp" depart="1" />
    <vehicle id="v_3" type="type" route="upLeft" depart="2" />
    <vehicle id="v_4" type="type" route="downUp" depart="3" />
    <vehicle id="v_5" type="type" route="upRight" depart="5" />
    <vehicle id="v_6" type="type" route="downUp" depart="8" />
    <vehicle id="v_7" type="type" route="upLeft" depart="9" />
    <vehicle id="v_8" type="type" route="downUp" depart="14" />
    <vehicle id="v_9" type="type" route="downRight" depart="19" />
    <vehicle id="v_10" type="type" route="rightLeft" depart="21" />
    <vehicle id="v_11" type="type" route="upDown" depart="22" />
    <vehicle id="v_12" type="type" route="rightLeft" depart="28" />
    <vehicle id="v_13" type="type" route="upDown" depart="28" />
    <vehicle id="v_14" type="type" route="upDown" depart="29" />
    <vehicle id="v_15" type="type" route="downUp" depart="29" />
    <vehicle id="v_16" type="type" route="rightLeft" depart="30" />
    <vehicle id="v_17" type="type" route="downUp" depart="35" />
    <vehicle id="v_18" type="type" route="downUp" depart="36" />
    <vehicle id="v_19" type="type" route="upDown" depart="39" />
    <vehicle id="v_20" type="type" route="downUp" depart="40" />
    <vehicle id="v_21" type="type" route="rightDown" depart="44" />
    <vehicle id="v_22" type="type" route="upDown" depart="46" />
    <vehicle id="v_23" type="type" route="upDown" depart="50" />
    <vehicle id="v_24" type="type" route="leftRight" depart="51" />
    <vehicle id="v_25" type="type" route="downUp" depart="56" />
    <vehicle id="v_26" type="type" route="leftRight" depart="57" />
    <vehicle id="v_27" type="type" route="leftUp" depart="60" />
    <vehicle id="v_28" type="type" route="downUp" depart="64" />
    <vehicle id="v_29" type="type" route="upDown" depart="65" />
    <vehicle id="v_30" type="type" route="downRight" depart="66" />
    <vehicle id="v_31" type="type" route="upDown" depart="73" />
    <vehicle id="v_32" type="type" route="leftRight" depart="77" />
    <vehicle id="v_33" type="type" route="downLeft" depart="83" />
    <vehicle id="v_34" type="type" route="upDown" depart="85" />
    <vehicle id="v_35" type="type" route="downUp" depart="89" />
    <vehicle id="v_36" type="type" route="leftRight" depart="92" />
    <vehicle id="v_37" type="type" route="leftRight" depart="94" />
    <vehicle id="v_38" type="type" route="upDown" depart="95" />
    <vehicle id="v_39" type="type" route="rightLeft" depart="97" />
    <vehicle id="v_40" type="type" route="downUp" depart="98" />
    <vehicle id="v_41" type="type" route="downUp" depart="104" />
    <vehicle id="v_42" type="type" route="downUp" depart="106" />
    <vehicle id="v_43" type="type" route="leftRight" depart="109" />
    <vehicle id="v_44" type="type" route="upDown" depart="112" />
    <vehicle id="v_45" type="type" route="rightLeft" depart="114" />
    <vehicle id="v_46" type="type" route="leftRight" depart="114" />
    <vehicle id="v_47" type="type" route="upDown" depart="115" />
    <vehicle id="v_48" type="type" route="upRight" depart="117" />
    <vehicle id="v_49" type="type" route="downRight" depart="119" />
    <vehicle id="v_50" type="type" route="upLeft" depart="123" />
    <vehicle id="v_51" type="type" route="leftUp" depart="124" />
    <vehicle id="v_52" type="type" route="downLeft" depart="132" />
    <vehicle id="v_53" type="type" route="rightDown" depart="134" />
    <vehicle id="v_54" type="type" route="rightDown" depart="136" />
    <vehicle id="v_55" type="type" route="upDown" depart="136" />
    <vehicle id="v_56" type="type" route="rightLeft" depart="138" />
    <vehicle id="v_57" type="type" route="rightLeft" depart="145" />
    <vehicle id="v_58" type="type" route="upDown" depart="148" />
    <vehicle id="v_59" type="type" route="upDown" depart="149" />
    <vehicle id="v_60" type="type" route="leftRight" depart="149" />
    <vehicle id="v_61" type="type" route="leftRight" depart="155" />
    <vehicle id="v_62" type="type" route="upRight" depart="160" />
    <vehicle id="v_63" type="type" route="rightUp" depart="163" />
    <vehicle id="v_64" type="type" route="rightDown" depart="164" />
    <vehicle id="v_65" type="type" route="downUp" depart="165" />
    <vehicle id="v_66" type="type" route="downUp" depart="167" />
    <vehicle id="v_67" type="type" route="rightDown" depart="177" />
    <vehicle id="v_68" type="type" route="upDown" depart="187" />
    <vehicle id="v_69" type="type" route="upDown" depart="189" />
    <vehicle id="v_70" type="type" route="upRight" depart="195" />
    <vehicle id="v_71" type="type" route="downUp" depart="196" />
    <vehicle id="v_72" type="type" route="rightLeft" depart="198" />
    <vehicle id="v_73" type="type" route="rightDown" depart="200" />
    <vehicle id="v_74" type="type" route="rightLeft" depart="202" />
    <vehicle id="v_75" type="type" route="upDown" depart="208" />
    <vehicle id="v_76" type="type" route="upLeft" depart="213" />
    <vehicle id="v_77" type="type" route="downUp" depart="219" />
    <vehicle id="v_78" type="type" route="rightDown" depart="222" />
    <vehicle id="v_79" type="type" route="rightLeft" depart="223" />
    <vehicle id="v_80" type="type" route="rightDown" depart="225" />
    <vehicle id="v_81" type="type" route="leftRight" depart="227" />
    <vehicle id="v_82" type="type" route="upDown" depart="228" />
    <vehicle id="v_83" type="type" route="upDown" depart="229" />
    <vehicle id="v_84" type="type" route="upDown" depart="232" />
    <vehicle id="v_85" type="type" route="upDown" depart="233" />
    <vehicle id="v_86" type="type" route="rightDown" depart="235" />
    <vehicle id="v_87" type="type" route="leftRight" depart="236" />
    <vehicle id="v_88" type="type" route="downUp" depart="237" />
    <vehicle id="v_89" type="type" route="rightLeft" depart="240" />
    <vehicle id="v_90" type="type" route="upDown" depart="241" />
    <vehicle id="v_91" type="type" route="leftRight" depart="242" />
    <vehicle id="v_92" type="type" route="rightLeft" depart="243" />
    <vehicle id="v_93" type="type" route="rightLeft" depart="245" />
    <vehicle id="v_94" type="type" route="downUp" depart="247" />
    <vehicle id="v_95" type="type" route="rightLeft" depart="249" />
    <vehicle id="v_96" type="type" route="upRight" depart="249" />
    <vehicle id="v_97" type="type" route="rightDown" depart="257" />
    <vehicle id="v_98" type="type" route="downLeft" depart="258" />
    <vehicle id="v_99" type="type" route="rightLeft" depart="260" />
    <vehicle id="v_100" type="type" route="rightUp" depart="262" />
    <vehicle id="v_101" type="type" route="rightLeft" depart="266" />
    <vehicle id="v_102" type="type" route="leftRight" depart="266" />
    <vehicle id="v_103" type="type" route="downUp" depart="267" />
    <vehicle id="v_104" type="type" route="leftDown" depart="269" />
    <vehicle id="v_105" type="type" route="downRight" depart="269" />
    <vehicle id="v_106" type="type" route="downUp" depart="271" />
    <vehicle id="v_107" type="type" route="rightDown" depart="273" />
    <vehicle id="v_108" type="type" route="rightLeft" depart="282" />
    <vehicle id="v_109" type="type" route="downUp" depart="282" />
    <vehicle id="v_110" type="type" route="leftUp" depart="283" />
    <vehicle id="v_111" type="type" route="downLeft" depart="283" />
    <vehicle id="v_112" type="type" route="upRight" depart="287" />
    <vehicle id="v_113" type="type" route="downRight" depart="291" />
    <vehicle id="v_114" type="type" route="leftDown" depart="300" />
    <vehicle id="v_115" type="type" route="downUp" depart="301" />
    <vehicle id="v_116" type="type" route="upRight" depart="314" />
    <vehicle id="v_117" type="type" route="leftDown" depart="315" />
    <vehicle id="v_118" type="type" route="upRight" depart="318" />
    <vehicle id="v_119" type="type" route="leftRight" depart="320" />
    <vehicle id="v_120" type="type" route="rightLeft" depart="322" />
    <vehicle id="v_121" type="type" route="rightDown" depart="324" />
    <vehicle id="v_122" type="type" route="upDown" depart="324" />
    <vehicle id="v_123" type="type" route="leftUp" depart="326" />
    <vehicle id="v_124" type="type" route="upDown" depart="328" />
    <vehicle id="v_125" type="type" route="upDown" depart="330" />
    <vehicle id="v_126" type="type" route="rightLeft" depart="331" />
    <vehicle id="v_127" type="type" route="upDown" depart="331" />
    <vehicle id="v_128" type="type" route="upDown" depart="337" />
    <vehicle id="v_129" type="type" route="upDown" depart="338" />
    <vehicle id="v_130" type="type" route="downLeft" depart="339" />
    <vehicle id="v_131" type="type" route="upDown" depart="341" />
    <vehicle id="v_132" type="type" route="upRight" depart="343" />
    <vehicle id="v_133" type="type" route="upDown" depart="351" />
    <vehicle id="v_134" type="type" route="upDown" depart="352" />
    <vehicle id="v_135" type="type" route="upDown" depart="355" />
    <vehicle id="v_136" type="type" route="leftRight" depart="356" />
    <vehicle id="v_137" type="type" route="rightDown" depart="358" />
    <vehicle id="v_138" type="type" route="rightUp" depart="361" />
    <vehicle id="v_139" type="type" route="upRight" depart="367" />
    <vehicle id="v_140" type="type" route="rightUp" depart="371" />
    <vehicle id="v_141" type="type" route="upLeft" depart="375" />
    <vehicle id="v_142" type="type" route="downLeft" depart="378" />
    <vehicle id="v_143" type="type" route="rightLeft" depart="380" />
    <vehicle id="v_144" type="type" route="downUp" depart="383" />
    <vehicle id="v_145" type="type" route="leftRight" depart="387" />
    <vehicle id="v_146" type="type" route="downUp" depart="393" />
    <vehicle id="v_147" type="type" route="rightDown" depart="397" />
    <vehicle id="v_148" type="type" route="leftRight" depart="397" />
    <vehicle id="v_149" type="type" route="leftRight" depart="399" />
    <vehicle id="v_150" type="type" route="rightLeft" depart="413" />
    <vehicle id="v_151" type="type" route="rightLeft" depart="414" />
    <vehicle id="v_152" type="type" route="downUp" depart="416" />
    <vehicle id="v_153" type="type" route="downUp" depart="420" />
    <vehicle id="v_154" type="type" route="rightLeft" depart="427" />
    <vehicle id="v_155" type="type" route="downUp" depart="429" />
    <vehicle id="v_156" type="type" route="upRight" depart="430" />
    <vehicle id="v_157" type="type" route="leftRight" depart="436" />
    <vehicle id="v_158" type="type" route="rightLeft" depart="437" />
    <vehicle id="v_159" type="type" route="upDown" depart="437" />
    <vehicle id="v_160" type="type" route="leftRight" depart="439" />
    <vehicle id="v_161" type="type" route="downUp" depart="440" />
    <vehicle id="v_162" type="type" route="leftRight" depart="442" />
    <vehicle id="v_163" type="type" route="downLeft" depart="442" />
    <vehicle id="v_164" type="type" route="upDown" depart="443" />
    <vehicle id="v_165" type="type" route="leftRight" depart="443" />
    <vehicle id="v_166" type="type" route="downRight" depart="448" />
    <vehicle id="v_167" type="type" route="downUp" depart="452" />
    <vehicle id="v_168" type="type" route="upDown" depart="453" />
    <vehicle id="v_169" type="type" route="downUp" depart="453" />
    <vehicle id="v_170" type="type" route="rightLeft" depart="455" />
    <vehicle id="v_171" type="type" route="upDown" depart="458" />
    <vehicle id="v_172" type="type" route="downUp" depart="465" />
    <vehicle id="v_173" type="type" route="upDown" depart="469" />
    <vehicle id="v_174" type="type" route="leftDown" depart="473" />
    <vehicle id="v_175" type="type" route="downRight" depart="481" />
    <vehicle id="v_176" type="type" route="rightLeft" depart="484" />
    <vehicle id="v_177" type="type" route="downUp" depart="485" />
    <vehicle id="v_178" type="type" route="rightLeft" depart="486" />
    <vehicle id="v_179" type="type" route="downUp" depart="486" />
    <vehicle id="v_180" type="type" route="rightUp" depart="488" />
    <vehicle id="v_181" type="type" route="rightLeft" depart="492" />
    <vehicle id="v_182" type="type" route="leftRight" depart="492" />
    <vehicle id="v_183" type="type" route="upDown" depart="494" />
    <vehicle id="v_184" type="type" route="leftRight" depart="494" />
    <vehicle id="v_185" type="type" route="leftRight" depart="495" />
    <vehicle id="v_186" type="type" route="leftDown" depart="496" />
    <vehicle id="v_187" type="type" route="upRight" depart="498" />
    <vehicle id="v_188" type="type" route="upDown" depart="501" />
    <vehicle id="v_189" type="type" route="rightLeft" depart="503" />
    <vehicle id="v_190" type="type" route="rightLeft" depart="505" />
    <vehicle id="v_191" type="type" route="downRight" depart="505" />
    <vehicle id="v_192" type="type" route="upLeft" depart="507" />
    <vehicle id="v_193" type="type" route="upDown" depart="509" />
    <vehicle id="v_194" type="type" route="leftRight" depart="509" />
    <vehicle id="v_195" type="type" route="downLeft" depart="510" />
    <vehicle id="v_196" type="type" route="rightLeft" depart="513" />
    <vehicle id="v_197" type="type" route="downUp" depart="513" />
    <vehicle id="v_198" type="type" route="downLeft" depart="526" />
    <vehicle id="v_199" type="type" route="downUp" depart="529" />
    <vehicle id="v_200" type="type" route="downLeft" depart="530" />
    <vehicle id="v_201" type="type" route="upLeft" depart="532" />
    <vehicle id="v_202" type="type" route="rightUp" depart="535" />
    <vehicle id="v_203" type="type" route="rightLeft" depart="543" />
    <vehicle id="v_204" type="type" route="rightUp" depart="545" />
    <vehicle id="v_205" type="type" route="downRight" depart="549" />
    <vehicle id="v_206" type="type" route="leftRight" depart="554" />
    <vehicle id="v_207" type="type" route="downRight" depart="554" />
    <vehicle id="v_208" type="type" route="rightUp" depart="557" />
    <vehicle id="v_209" type="type" route="rightLeft" depart="561" />
    <vehicle id="v_210" type="type" route="rightLeft" depart="567" />
    <vehicle id="v_211" type="type" route="leftDown" depart="569" />
    <vehicle id="v_212" type="type" route="upDown" depart="574" />
    <vehicle id="v_213" type="type" route="downUp" depart="575" />
    <vehicle id="v_214" type="type" route="upDown" depart="577" />
    <vehicle id="v_215" type="type" route="upRight" depart="580" />
    <vehicle id="v_216" type="type" route="downLeft" depart="581" />
    <vehicle id="v_217" type="type" route="leftRight" depart="586" />
    <vehicle id="v_218" type="type" route="leftUp" depart="587" />
    <vehicle id="v_219" type="type" route="downUp" depart="588" />
    <vehicle id="v_220" type="type" route="downUp" depart="591" />
    <vehicle id="v_221" type="type" route="downRight" depart="593" />
    <vehicle id="v_222" type="type" route="downUp" depart="595" />
    <vehicle id="v_223" type="type" route="downLeft" depart="598" />
    <vehicle id="v_224" type="type" route="upRight" depart="603" />
    <vehicle id="v_225" type="type" route="downRight" depart="603" />
    <vehicle id="v_226" type="type" route="leftRight" depart="605" />
    <vehicle id="v_227" type="type" route="leftUp" depart="608" />
    <vehicle id="v_228" type="type" route="upRight" depart="609" />
    <vehicle id="v_229" type="type" route="leftUp" depart="614" />
    <vehicle id="v_230" type="type" route="rightLeft" depart="615" />
    <vehicle id="v_231" type="type" route="leftRight" depart="615" />
    <vehicle id="v_232" type="type" route="upDown" depart="618" />
    <vehicle id="v_233" type="type" route="rightLeft" depart="622" />
    <vehicle id="v_234" type="type" route="downUp" depart="623" />
    <vehicle id="v_235" type="type" route="rightLeft" depart="625" />
    <vehicle id="v_236" type="type" route="rightLeft" depart="628" />
    <vehicle id="v_237" type="type" route="leftRight" depart="629" />
    <vehicle id="v_238" type="type" route="upDown" depart="631" />
    <vehicle id="v_239" type="type" route="downLeft" depart="631" />
    <vehicle id="v_240" type="type" route="upRight" depart="633" />
    <vehicle id="v_241" type="type" route="rightLeft" depart="634" />
    <vehicle id="v_242" type="type" route="downUp" depart="636" />
    <vehicle id="v_243" type="type" route="rightDown" depart="641" />
    <vehicle id="v_244" type="type" route="leftRight" depart="641" />
    <vehicle id="v_245" type="type" route="rightLeft" depart="643" />
    <vehicle id="v_246" type="type" route="downUp" depart="644" />
    <vehicle id="v_247" type="type" route="upRight" depart="647" />
    <vehicle id="v_248" type="type" route="rightLeft" depart="649" />
    <vehicle id="v_249" type="type" route="upDown" depart="650" />
    <vehicle id="v_250" type="type" route="downUp" depart="651" />
    <vehicle id="v_251" type="type" route="rightLeft" depart="653" />
    <vehicle id="v_252" type="type" route="upDown" depart="658" />
    <vehicle id="v_253" type="type" route="downLeft" depart="660" />
    <vehicle id="v_254" type="type" route="downUp" depart="663" />
    <vehicle id="v_255" type="type" route="upLeft" depart="666" />
    <vehicle id="v_256" type="type" route="rightDown" depart="667" />
    <vehicle id="v_257" type="type" route="downUp" depart="668" />
    <vehicle id="v_258" type="type" route="upDown" depart="677" />
    <vehicle id="v_259" type="type" route="upDown" depart="680" />
    <vehicle id="v_260" type="type" route="downUp" depart="681" />
    <vehicle id="v_261" type="type" route="upDown" depart="682" />
    <vehicle id="v_262" type="type" route="leftDown" depart="685" />
    <vehicle id="v_263" type="type" route="leftRight" depart="686" />
    <vehicle id="v_264" type="type" route="downUp" depart="687" />
    <vehicle id="v_265" type="type" route="leftDown" depart="688" />
    <vehicle id="v_266" type="type" route="downUp" depart="691" />
    <vehicle id="v_267" type="type" route="rightLeft" depart="694" />
    <vehicle id="v_268" type="type" route="leftDown" depart="694" />
    <vehicle id="v_269" type="type" route="downUp" depart="695" />
    <vehicle id="v_270" type="type" route="rightLeft" depart="698" />
    <vehicle id="v_271" type="type" route="leftRight" depart="698" />
    <vehicle id="v_272" type="type" route="downLeft" depart="701" />
    <vehicle id="v_273" type="type" route="leftRight" depart="707" />
    <vehicle id="v_274" type="type" route="downUp" depart="713" />
    <vehicle id="v_275" type="type" route="downLeft" depart="714" />
    <vehicle id="v_276" type="type" route="upDown" depart="716" />
    <vehicle id="v_277" type="type" route="leftDown" depart="717" />
    <vehicle id="v_278" type="type" route="rightLeft" depart="723" />
    <vehicle id="v_279" type="type" route="rightLeft" depart="726" />
    <vehicle id="v_280" type="type" route="rightLeft" depart="731" />
    <vehicle id="v_281" type="type" route="leftDown" depart="731" />
    <vehicle id="v_282" type="type" route="upLeft" depart="732" />
    <vehicle id="v_283" type="type" route="downLeft" depart="737" />
    <vehicle id="v_284" type="type" route="rightLeft" depart="743" />
    <vehicle id="v_285" type="type" route="leftRight" depart="746" />
    <vehicle id="v_286" type="type" route="upDown" depart="748" />
    <vehicle id="v_287" type="type" route="upDown" depart="751" />
    <vehicle id="v_288" type="type" route="leftDown" depart="752" />
    <vehicle id="v_289" type="type" route="rightLeft" depart="756" />
    <vehicle id="v_290" type="type" route="leftRight" depart="757" />
    <vehicle id="v_291" type="type" route="downUp" depart="758" />
    <vehicle id="v_292" type="type" route="upLeft" depart="759" />
    <vehicle id="v_293" type="type" route="rightDown" depart="768" />
    <vehicle id="v_294" type="type" route="downLeft" depart="768" />
    <vehicle id="v_295" type="type" route="leftUp" depart="769" />
    <vehicle id="v_296" type="type" route="upDown" depart="776" />
    <vehicle id="v_297" type="type" route="upDown" depart="777" />
    <vehicle id="v_298" type="type" route="leftRight" depart="778" />
    <vehicle id="v_299" type="type" route="leftRight" depart="780" />
    <vehicle id="v_300" type="type" route="downUp" depart="780" />
    <vehicle id="v_301" type="type" route="downUp" depart="781" />
    <vehicle id="v_302" type="type" route="rightDown" depart="782" />
    <vehicle id="v_303" type="type" route="downUp" depart="783" />
    <vehicle id="v_304" type="type" route="downLeft" depart="786" />
    <vehicle id="v_305" type="type" route="rightLeft" depart="789" />
    <vehicle id="v_306" type="type" route="downUp" depart="790" />
    <vehicle id="v_307" type="type" route="downUp" depart="793" />
    <vehicle id="v_308" type="type" route="downUp" depart="795" />
    <vehicle id="v_309" type="type" route="rightLeft" depart="797" />
    <vehicle id="v_310" type="type" route="downUp" depart="797" />
    <vehicle id="v_311" type="type" route="leftRight" depart="801" />
    <vehicle id="v_312" type="type" route="downUp" depart="803" />
    <vehicle id="v_313" type="type" route="downRight" depart="807" />
    <vehicle id="v_314" type="type" route="downLeft" depart="813" />
    <vehicle id="v_315" type="type" route="upRight" depart="827" />
    <vehicle id="v_316" type="type" route="rightLeft" depart="830" />
    <vehicle id="v_317" type="type" route="leftRight" depart="834" />
    <vehicle id="v_318" type="type" route="rightDown" depart="842" />
    <vehicle id="v_319" type="type" route="leftRight" depart="844" />
    <vehicle id="v_320" type="type" route="upLeft" depart="845" />
    <vehicle id="v_321" type="type" route="downUp" depart="847" />
    <vehicle id="v_322" type="type" route="upDown" depart="852" />
    <vehicle id="v_323" type="type" route="rightUp" depart="854" />
    <vehicle id="v_324" type="type" route="rightUp" depart="858" />
    <vehicle id="v_325" type="type" route="upDown" depart="860" />
    <vehicle id="v_326" type="type" route="rightDown" depart="862" />
    <vehicle id="v_327" type="type" route="rightLeft" depart="863" />
    <vehicle id="v_328" type="type" route="upDown" depart="868" />
    <vehicle id="v_329" type="type" route="rightUp" depart="874" />
    <vehicle id="v_330" type="type" route="leftRight" depart="878" />
    <vehicle id="v_331" type="type" route="leftRight" depart="883" />
    <vehicle id="v_332" type="type" route="downUp" depart="883" />
    <vehicle id="v_333" type="type" route="rightLeft" depart="884" />
    <vehicle id="v_334" type="type" route="leftRight" depart="892" />
    <vehicle id="v_335" type="type" route="downUp" depart="892" />
    <vehicle id="v_336" type="type" route="rightDown" depart="894" />
    <vehicle id="v_337" type="type" route="upDown" depart="900" />
    <vehicle id="v_338" type="type" route="downRight" depart="903" />
    <vehicle id="v_339" type="type" route="downUp" depart="904" />
    <vehicle id="v_340" type="type" route="rightLeft" depart="905" />
    <vehicle id="v_341" type="type" route="upDown" depart="906" />
    <vehicle id="v_342" type="type" route="rightLeft" depart="907" />
    <vehicle id="v_343" type="type" route="downUp" depart="912" />
    <vehicle id="v_344" type="type" route="upDown" depart="913" />
    <vehicle id="v_345" type="type" route="upDown" depart="916" />
    <vehicle id="v_346" type="type" route="leftRight" depart="918" />
    <vehicle id="v_347" type="type" route="leftRight" depart="921" />
    <vehicle id="v_348" type="type" route="downRight" depart="930" />
    <vehicle id="v_349" type="type" route="downUp" depart="931" />
    <vehicle id="v_350" type="type" route="rightUp" depart="932" />
    <vehicle id="v_351" type="type" route="downUp" depart="935" />
    <vehicle id="v_352" type="type" route="downUp" depart="936" />
    <vehicle id="v_353" type="type" route="rightUp" depart="937" />
    <vehicle id="v_354" type="type" route="rightUp" depart="939" />
    <vehicle id="v_355" type="type" route="leftRight" depart="942" />
    <vehicle id="v_356" type="type" route="leftRight" depart="946" />
    <vehicle id="v_357" type="type" route="downUp" depart="946" />
    <vehicle id="v_358" type="type" route="leftUp" depart="948" />
    <vehicle id="v_359" type="type" route="rightLeft" depart="949" />
    <vehicle id="v_360" type="type" route="leftDown" depart="949" />
    <vehicle id="v_361" type="type" route="leftRight" depart="955" />
    <vehicle id="v_362" type="type" route="leftUp" depart="958" />
    <vehicle id="v_363" type="type" route="upLeft" depart="961" />
    <vehicle id="v_364" type="type" route="upLeft" depart="966" />
    <vehicle id="v_365" type="type" route="upDown" depart="971" />
    <vehicle id="v_366" type="type" route="leftRight" depart="973" />
    <vehicle id="v_367" type="type" route="upRight" depart="979" />
    <vehicle id="v_368" type="type" route="downUp" depart="982" />
    <vehicle id="v_369" type="type" route="downUp" depart="983" />
    <vehicle id="v_370" type="type" route="upDown" depart="984" />
    <vehicle id="v_371" type="type" route="downUp" depart="984" />
    <vehicle id="v_372" type="type" route="upLeft" depart="985" />
    <vehicle id="v_373" type="type" route="downUp" depart="987" />
    <vehicle id="v_374" type="type" route="rightLeft" depart="994" />
    <vehicle id="v_375" type="type" route="rightDown" depart="995" />
    <vehicle id="v_376" type="type" route="downUp" depart="995" />
    <vehicle id="v_377" type="type" route="leftRight" depart="996" />
    <vehicle id="v_378" type="type" route="upRight" depart="1003" />
    <vehicle id="v_379" type="type" route="rightLeft" depart="1008" />
    <vehicle id="v_380" type="type" route="upDown" depart="1008" />
    <vehicle id="v_381" type="type" route="rightLeft" depart="1011" />
    <vehicle id="v_382" type="type" route="upDown" depart="1013" />
    <vehicle id="v_383" type="type" route="rightUp" depart="1017" />
    <vehicle id="v_384" type="type" route="upRight" depart="1018" />
    <vehicle id="v_385" type="type" route="leftRight" depart="1018" />
    <vehicle id="v_386" type="type" route="leftRight" depart="1019" />
    <vehicle id="v_387" type="type" route="upRight" depart="1026" />
    <vehicle id="v_388" type="type" route="upDown" depart="1027" />
    <vehicle id="v_389" type="type" route="rightDown" depart="1028" />
    <vehicle id="v_390" type="type" route="downLeft" depart="1031" />
    <vehicle id="v_391" type="type" route="rightLeft" depart="1033" />
    <vehicle id="v_392" type="type" route="rightDown" depart="1035" />
    <vehicle id="v_393" type="type" route="rightLeft" depart="1036" />
    <vehicle id="v_394" type="type" route="upDown" depart="1036" />
    <vehicle id="v_395" type="type" route="rightUp" depart="1038" />
    <vehicle id="v_396" type="type" route="rightLeft" depart="1039" />
    <vehicle id="v_397" type="type" route="rightLeft" depart="1051" />
    <vehicle id="v_398" type="type" route="downUp" depart="1052" />
    <vehicle id="v_399" type="type" route="upDown" depart="1054" />
    <vehicle id="v_400" type="type" route="downRight" depart="1057" />
    <vehicle id="v_401" type="type" route="upDown" depart="1060" />
    <vehicle id="v_402" type="type" route="rightLeft" depart="1061" />
    <vehicle id="v_403" type="type" route="rightLeft" depart="1062" />
    <vehicle id="v_404" type="type" route="upDown" depart="1064" />
    <vehicle id="v_405" type="type" route="leftRight" depart="1064" />
    <vehicle id="v_406" type="type" route="downUp" depart="1064" />
    <vehicle id="v_407" type="type" route="leftUp" depart="1067" />
    <vehicle id="v_408" type="type" route="upDown" depart="1068" />
    <vehicle id="v_409" type="type" route="leftRight" depart="1069" />
    <vehicle id="v_410" type="type" route="rightLeft" depart="1071" />
    <vehicle id="v_411" type="type" route="leftDown" depart="1072" />
    <vehicle id="v_412" type="type" route="leftUp" depart="1073" />
    <vehicle id="v_413" type="type" route="upLeft" depart="1074" />
    <vehicle id="v_414" type="type" route="leftRight" depart="1076" />
    <vehicle id="v_415" type="type" route="rightLeft" depart="1077" />
    <vehicle id="v_416" type="type" route="rightLeft" depart="1078" />
    <vehicle id="v_417" type="type" route="upDown" depart="1078" />
    <vehicle id="v_418" type="type" route="leftDown" depart="1079" />
    <vehicle id="v_419" type="type" route="downUp" depart="1080" />
    <vehicle id="v_420" type="type" route="leftRight" depart="1082" />
    <vehicle id="v_421" type="type" route="leftRight" depart="1086" />
    <vehicle id="v_422" type="type" route="downUp" depart="1087" />
    <vehicle id="v_423" type="type" route="upDown" depart="1103" />
    <vehicle id="v_424" type="type" route="leftRight" depart="1103" />
    <vehicle id="v_425" type="type" route="downLeft" depart="1104" />