<routes>
                <vType id="type" accel="0.8" decel="4.5" sigma="0.5" length="5" minGap="2.5" maxSpeed="16.67"         guiShape="passenger"/>
        
                <route id="ul" edges="54i 4i 1o 51o" />
                <route id="ud" edges="54i 4i 1o 51o" />
                <route id="ur" edges="54i 4i 3o 53o" />
                <route id="ru" edges="52i 2i 4o 54o" />
                <route id="rl" edges="52i 2i 1o 51o" />
                <route id="rd" edges="52i 2i 3o 53o" />
                <route id="dr" edges="53i 3i 2o 52o" />
                <route id="du" edges="53i 3i 4o 54o" />
                <route id="dl" edges="53i 3i 1o 51o" />
                <route id="ld" edges="51i 1i 3o 53o" />
                <route id="lr" edges="51i 1i 2o 52o" />
                <route id="lu" edges="51i 1i 4o 54o" />
    <vehicle id="v_0" type="type" route="rl" depart="1" />
    <vehicle id="v_1" type="type" route="ur" depart="2" />
    <vehicle id="v_2" type="type" route="dr" depart="6" />
    <vehicle id="v_3" type="type" route="ud" depart="7" />
    <vehicle id="v_4" type="type" route="dl" depart="8" />
    <vehicle id="v_5" type="type" route="ul" depart="15" />
    <vehicle id="v_6" type="type" route="dr" depart="17" />
    <vehicle id="v_7" type="type" route="rd" depart="19" />
    <vehicle id="v_8" type="type" route="dr" depart="20" />
    <vehicle id="v_9" type="type" route="rd" depart="21" />
    <vehicle id="v_10" type="type" route="ru" depart="34" />
    <vehicle id="v_11" type="type" route="rd" depart="42" />
    <vehicle id="v_12" type="type" route="rl" depart="43" />
    <vehicle id="v_13" type="type" route="lr" depart="46" />
    <vehicle id="v_14" type="type" route="lu" depart="47" />
    <vehicle id="v_15" type="type" route="du" depart="48" />
    <vehicle id="v_16" type="type" route="ul" depart="56" />
    <vehicle id="v_17" type="type" route="ld" depart="59" />
    <vehicle id="v_18" type="type" route="lr" depart="61" />
    <vehicle id="v_19" type="type" route="ur" depart="65" />
    <vehicle id="v_20" type="type" route="dl" depart="66" />
    <vehicle id="v_21" type="type" route="du" depart="73" />
    <vehicle id="v_22" type="type" route="ul" depart="74" />
    <vehicle id="v_23" type="type" route="ur" depart="76" />
    <vehicle id="v_24" type="type" route="dr" depart="79" />
    <vehicle id="v_25" type="type" route="dl" depart="82" />
    <vehicle id="v_26" type="type" route="lu" depart="84" />
    <vehicle id="v_27" type="type" route="dl" depart="85" />
    <vehicle id="v_28" type="type" route="ur" depart="89" />
    <vehicle id="v_29" type="type" route="dl" depart="93" />
    <vehicle id="v_30" type="type" route="lr" depart="96" />
    <vehicle id="v_31" type="type" route="lr" depart="97" />
    <vehicle id="v_32" type="type" route="rd" depart="99" />
    <vehicle id="v_33" type="type" route="rd" depart="104" />
    <vehicle id="v_34" type="type" route="rd" depart="106" />
    <vehicle id="v_35" type="type" route="ul" depart="109" />
    <vehicle id="v_36" type="type" route="ld" depart="110" />
    <vehicle id="v_37" type="type" route="du" depart="112" />
    <vehicle id="v_38" type="type" route="lr" depart="116" />
    <vehicle id="v_39" type="type" route="ld" depart="119" />
    <vehicle id="v_40" type="type" route="dl" depart="121" />
    <vehicle id="v_41" type="type" route="ud" depart="130" />
    <vehicle id="v_42" type="type" route="ru" depart="133" />
    <vehicle id="v_43" type="type" route="lu" depart="134" />
    <vehicle id="v_44" type="type" route="ul" depart="136" />
    <vehicle id="v_45" type="type" route="ru" depart="138" />
    <vehicle id="v_46" type="type" route="du" depart="139" />
    <vehicle id="v_47" type="type" route="ur" depart="140" />
    <vehicle id="v_48" type="type" route="du" depart="144" />
    <vehicle id="v_49" type="type" route="ud" depart="146" />
    <vehicle id="v_50" type="type" route="lr" depart="151" />
    <vehicle id="v_51" type="type" route="dr" depart="153" />
    <vehicle id="v_52" type="type" route="ru" depart="156" />
    <vehicle id="v_53" type="type" route="du" depart="157" />
    <vehicle id="v_54" type="type" route="ur" depart="158" />
    <vehicle id="v_55" type="type" route="ru" depart="159" />
    <vehicle id="v_56" type="type" route="dl" depart="161" />
    <vehicle id="v_57" type="type" route="lr" depart="162" />
    <vehicle id="v_58" type="type" route="du" depart="168" />
    <vehicle id="v_59" type="type" route="ul" depart="172" />
    <vehicle id="v_60" type="type" route="du" depart="174" />
    <vehicle id="v_61" type="type" route="lu" depart="175" />
    <vehicle id="v_62" type="type" route="rl" depart="180" />
    <vehicle id="v_63" type="type" route="ul" depart="181" />
    <vehicle id="v_64" type="type" route="ld" depart="185" />
    <vehicle id="v_65" type="type" route="dl" depart="189" />
    <vehicle id="v_66" type="type" route="ur" depart="190" />
    <vehicle id="v_67" type="type" route="ud" depart="191" />
    <vehicle id="v_68" type="type" route="ud" depart="193" />
    <vehicle id="v_69" type="type" route="ud" depart="197" />
    <vehicle id="v_70" type="type" route="lu" depart="202" />
    <vehicle id="v_71" type="type" route="rl" depart="203" />
    <vehicle id="v_72" type="type" route="rd" depart="206" />
    <vehicle id="v_73" type="type" route="ld" depart="209" />
    <vehicle id="v_74" type="type" route="ru" depart="212" />
    <vehicle id="v_75" type="type" route="rd" depart="214" />
    <vehicle id="v_76" type="type" route="dl" depart="218" />
    <vehicle id="v_77" type="type" route="dl" depart="223" />
    <vehicle id="v_78" type="type" route="lr" depart="224" />
    <vehicle id="v_79" type="type" route="ur" depart="225" />
    <vehicle id="v_80" type="type" route="ud" depart="226" />
    <vehicle id="v_81" type="type" route="rl" depart="228" />
    <vehicle id="v_82" type="type" route="lr" depart="231" />
    <vehicle id="v_83" type="type" route="ul" depart="234" />
    <vehicle id="v_84" type="type" route="dr" depart="235" />
    <vehicle id="v_85" type="type" route="rd" depart="237" />
    <vehicle id="v_86" type="type" route="lu" depart="240" />
    <vehicle id="v_87" type="type" route="lu" depart="244" />
    <vehicle id="v_88" type="type" route="ur" depart="249" />
    <vehicle id="v_89" type="type" route="rd" depart="250" />
    <vehicle id="v_90" type="type" route="ru" depart="255" />
    <vehicle id="v_91" type="type" route="ur" depart="263" />
    <vehicle id="v_92" type="type" route="lu" depart="267" />
    <vehicle id="v_93" type="type" route="ur" depart="273" />
    <vehicle id="v_94" type="type" route="ul" depart="275" />
    <vehicle id="v_95" type="type" route="du" depart="277" />
    <vehicle id="v_96" type="type" route="lr" depart="281" />
    <vehicle id="v_97" type="type" route="rd" depart="282" />
    <vehicle id="v_98" type="type" route="ud" depart="283" />
    <vehicle id="v_99" type="type" route="lr" depart="285" />
    <vehicle id="v_100" type="type" route="ul" depart="289" />
    <vehicle id="v_101" type="type" route="rl" depart="290" />
    <vehicle id="v_102" type="type" route="rl" depart="291" />
    <vehicle id="v_103" type="type" route="ld" depart="292" />
    <vehicle id="v_104" type="type" route="ld" depart="295" />
    <vehicle id="v_105" type="type" route="ld" depart="297" />
    <vehicle id="v_106" type="type" route="ul" depart="298" />
    <vehicle id="v_107" type="type" route="dl" depart="300" />
    <vehicle id="v_108" type="type" route="dr" depart="304" />
    <vehicle id="v_109" type="type" route="lr" depart="305" />
    <vehicle id="v_110" type="type" route="rl" depart="309" />
    <vehicle id="v_111" type="type" route="lu" depart="312" />
    <vehicle id="v_112" type="type" route="ur" depart="313" />
    <vehicle id="v_113" type="type" route="lr" depart="314" />
    <vehicle id="v_114" type="type" route="dl" depart="319" />
    <vehicle id="v_115" type="type" route="ru" depart="321" />
    <vehicle id="v_116" type="type" route="du" depart="327" />
    <vehicle id="v_117" type="type" route="lr" depart="332" />
    <vehicle id="v_118" type="type" route="ru" depart="338" />
    <vehicle id="v_119" type="type" route="ul" depart="339" />
    <vehicle id="v_120" type="type" route="du" depart="340" />
    <vehicle id="v_121" type="type" route="lu" depart="349" />
    <vehicle id="v_122" type="type" route="ud" depart="350" />
    <vehicle id="v_123" type="type" route="lu" depart="352" />
    <vehicle id="v_124" type="type" route="ru" depart="354" />
    <vehicle id="v_125" type="type" route="ur" depart="356" />
    <vehicle id="v_126" type="type" route="ru" depart="371" />
    <vehicle id="v_127" type="type" route="dl" depart="373" />
    <vehicle id="v_128" type="type" route="du" depart="375" />
    <vehicle id="v_129" type="type" route="rl" depart="376" />
    <vehicle id="v_130" type="type" route="rd" depart="377" />
    <vehicle id="v_131" type="type" route="dl" depart="378" />
    <vehicle id="v_132" type="type" route="ur" depart="379" />
    <vehicle id="v_133" type="type" route="lu" depart="380" />
    <vehicle id="v_134" type="type" route="ru" depart="381" />
    <vehicle id="v_135" type="type" route="dr" depart="382" />
    <vehicle id="v_136" type="type" route="du" depart="383" />
    <vehicle id="v_137" type="type" route="dr" depart="385" />
    <vehicle id="v_138" type="type" route="ld" depart="389" />
    <vehicle id="v_139" type="type" route="rd" depart="391" />
    <vehicle id="v_140" type="type" route="dr" depart="392" />
    <vehicle id="v_141" type="type" route="ru" depart="399" />
    <vehicle id="v_142" type="type" route="du" depart="400" />
    <vehicle id="v_143" type="type" route="rd" depart="401" />
    <vehicle id="v_144" type="type" route="dr" depart="412" />
    <vehicle id="v_145" type="type" route="du" depart="413" />
    <vehicle id="v_146" type="type" route="rl" depart="414" />
    <vehicle id="v_147" type="type" route="rd" depart="416" />
    <vehicle id="v_148" type="type" route="dr" depart="419" />
    <vehicle id="v_149" type="type" route="ud" depart="420" />
    <vehicle id="v_150" type="type" route="rd" depart="423" />
    <vehicle id="v_151" type="type" route="ud" depart="424" />
    <vehicle id="v_152" type="type" route="ul" depart="429" />
    <vehicle id="v_153" type="type" route="du" depart="431" />
    <vehicle id="v_154" type="type" route="lu" depart="434" />
    <vehicle id="v_155" type="type" route="rd" depart="435" />
    <vehicle id="v_156" type="type" route="ld" depart="436" />
    <vehicle id="v_157" type="type" route="rl" depart="440" />
    <vehicle id="v_158" type="type" route="ul" depart="441" />
    <vehicle id="v_159" type="type" route="ld" depart="447" />
    <vehicle id="v_160" type="type" route="rl" depart="450" />
    <vehicle id="v_161" type="type" route="ld" depart="453" />
    <vehicle id="v_162" type="type" route="rd" depart="462" />
    <vehicle id="v_163" type="type" route="dl" depart="469" />
    <vehicle id="v_164" type="type" route="ru" depart="474" />
    <vehicle id="v_165" type="type" route="du" depart="476" />
    <vehicle id="v_166" type="type" route="du" depart="477" />
    <vehicle id="v_167" type="type" route="du" depart="482" />
    <vehicle id="v_168" type="type" route="rl" depart="483" />
    <vehicle id="v_169" type="type" route="ul" depart="487" />
    <vehicle id="v_170" type="type" route="ru" depart="489" />
    <vehicle id="v_171" type="type" route="ru" depart="497" />
    <vehicle id="v_172" type="type" route="lr" depart="499" />
    <vehicle id="v_173" type="type" route="lu" depart="505" />
    <vehicle id="v_174" type="type" route="ru" depart="507" />
    <vehicle id="v_175" type="type" route="ru" depart="508" />
    <vehicle id="v_176" type="type" route="lu" depart="509" />
    <vehicle id="v_177" type="type" route="ru" depart="512" />
    <vehicle id="v_178" type="type" route="ld" depart="514" />
    <vehicle id="v_179" type="type" route="ud" depart="517" />
    <vehicle id="v_180" type="type" route="rd" depart="519" />
    <vehicle id="v_181" type="type" route="ul" depart="520" />
    <vehicle id="v_182" type="type" route="ul" depart="522" />
    <vehicle id="v_183" type="type" route="du" depart="526" />
    <vehicle id="v_184" type="type" route="ul" depart="527" />
    <vehicle id="v_185" type="type" route="ul" depart="531" />
    <vehicle id="v_186" type="type" route="du" depart="532" />
    <vehicle id="v_187" type="type" route="ud" depart="533" />
    <vehicle id="v_188" type="type" route="lr" depart="535" />
    <vehicle id="v_189" type="type" route="ld" depart="537" />
    <vehicle id="v_190" type="type" route="ru" depart="539" />
    <vehicle id="v_191" type="type" route="dr" depart="540" />
    <vehicle id="v_192" type="type" route="dl" depart="543" />
    <vehicle id="v_193" type="type" route="ld" depart="546" />
    <vehicle id="v_194" type="type" route="ld" depart="548" />
    <vehicle id="v_195" type="type" route="lu" depart="549" />
    <vehicle id="v_196" type="type" route="ru" depart="550" />
    <vehicle id="v_197" type="type" route="ud" depart="552" />
    <vehicle id="v_198" type="type" route="ur" depart="553" />
    <vehicle id="v_199" type="type" route="dr" depart="555" />
    <vehicle id="v_200" type="type" route="ru" depart="558" />
    <vehicle id="v_201" type="type" route="rl" depart="559" />
    <vehicle id="v_202" type="type" route="ur" depart="573" />
    <vehicle id="v_203" type="type" route="dr" depart="580" />
    <vehicle id="v_204" type="type" route="ul" depart="584" />
    <vehicle id="v_205" type="type" route="ru" depart="588" />
    <vehicle id="v_206" type="type" route="ul" depart="595" />
    <vehicle id="v_207" type="type" route="dl" depart="597" />
    <vehicle id="v_208" type="type" route="ld" depart="600" />
    <vehicle id="v_209" type="type" route="ud" depart="606" />
    <vehicle id="v_210" type="type" route="lu" depart="608" />
    <vehicle id="v_211" type="type" route="ud" depart="613" />
    <vehicle id="v_212" type="type" route="rd" depart="614" />
    <vehicle id="v_213" type="type" route="dr" depart="615" />
    <vehicle id="v_214" type="type" route="dl" depart="618" />
    <vehicle id="v_215" type="type" route="dl" depart="620" />
    <vehicle id="v_216" type="type" route="dl" depart="625" />
    <vehicle id="v_217" type="type" route="rl" depart="626" />
    <vehicle id="v_218" type="type" route="lr" depart="629" />
    <vehicle id="v_219" type="type" route="ur" depart="631" />
    <vehicle id="v_220" type="type" route="ul" depart="632" />
    <vehicle id="v_221" type="type" route="ud" depart="634" />
    <vehicle id="v_222" type="type" route="ur" depart="636" />
    <vehicle id="v_223" type="type" route="du" depart="640" />
    <vehicle id="v_224" type="type" route="dl" depart="642" />
    <vehicle id="v_225" type="type" route="ru" depart="643" />
    <vehicle id="v_226" type="type" route="dr" depart="648" />
    <vehicle id="v_227" type="type" route="ul" depart="651" />
    <vehicle id="v_228" type="type" route="rl" depart="652" />
    <vehicle id="v_229" type="type" route="dl" depart="659" />
    <vehicle id="v_230" type="type" route="dr" depart="664" />
    <vehicle id="v_231" type="type" route="dr" depart="665" />
    <vehicle id="v_232" type="type" route="lu" depart="666" />
    <vehicle id="v_233" type="type" route="ul" depart="673" />
    <vehicle id="v_234" type="type" route="ld" depart="674" />
    <vehicle id="v_235" type="type" route="ud" depart="675" />
    <vehicle id="v_236" type="type" route="du" depart="683" />
    <vehicle id="v_237" type="type" route="ld" depart="685" />
    <vehicle id="v_238" type="type" route="lu" depart="692" />
    <vehicle id="v_239" type="type" route="lr" depart="697" />
    <vehicle id="v_240" type="type" route="lr" depart="702" />
    <vehicle id="v_241" type="type" route="ur" depart="704" />
    <vehicle id="v_242" type="type" route="ul" depart="707" />
    <vehicle id="v_243" type="type" route="rd" depart="708" />
    <vehicle id="v_244" type="type" route="dr" depart="710" />
    <vehicle id="v_245" type="type" route="ud" depart="713" />
    <vehicle id="v_246" type="type" route="lr" depart="719" />
    <vehicle id="v_247" type="type" route="rl" depart="720" />
    <vehicle id="v_248" type="type" route="dl" depart="724" />
    <vehicle id="v_249" type="type" route="du" depart="725" />
    <vehicle id="v_250" type="type" route="dr" depart="728" />
    <vehicle id="v_251" type="type" route="dr" depart="731" />
    <vehicle id="v_252" type="type" route="dr" depart="733" />
    <vehicle id="v_253" type="type" route="lr" depart="737" />
    <vehicle id="v_254" type="type" route="lr" depart="739" />
    <vehicle id="v_255" type="type" route="rd" depart="747" />
    <vehicle id="v_256" type="type" route="ru" depart="748" />
    <vehicle id="v_257" type="type" route="du" depart="757" />
    <vehicle id="v_258" type="type" route="rd" depart="758" />
    <vehicle id="v_259" type="type" route="rl" depart="760" />
    <vehicle id="v_260" type="type" route="dr" depart="761" />
    <vehicle id="v_261" type="type" route="ur" depart="762" />
    <vehicle id="v_262" type="type" route="ur" depart="767" />
    <vehicle id="v_263" type="type" route="du" depart="768" />
    <vehicle id="v_264" type="type" route="rd" depart="770" />
    <vehicle id="v_265" type="type" route="ru" depart="773" />
    <vehicle id="v_266" type="type" route="dl" depart="781" />
    <vehicle id="v_267" type="type" route="rd" depart="782" />
    <vehicle id="v_268" type="type" route="ru" depart="788" />
    <vehicle id="v_269" type="type" route="ld" depart="792" />
    <vehicle id="v_270" type="type" route="ud" depart="793" />
    <vehicle id="v_271" type="type" route="ul" depart="798" />
    <vehicle id="v_272" type="type" route="du" depart="800" />
    <vehicle id="v_273" type="type" route="ru" depart="801" />
    <vehicle id="v_274" type="type" route="du" depart="803" />
    <vehicle id="v_275" type="type" route="lu" depart="815" />
    <vehicle id="v_276" type="type" route="lr" depart="820" />
    <vehicle id="v_277" type="type" route="rl" depart="824" />
    <vehicle id="v_278" type="type" route="ud" depart="825" />
    <vehicle id="v_279" type="type" route="ru" depart="828" />
    <vehicle id="v_280" type="type" route="rd" depart="831" />
    <vehicle id="v_281" type="type" route="ur" depart="832" />
    <vehicle id="v_282" type="type" route="dl" depart="834" />
    <vehicle id="v_283" type="type" route="ru" depart="835" />
    <vehicle id="v_284" type="type" route="ur" depart="837" />
    <vehicle id="v_285" type="type" route="ur" depart="840" />
    <vehicle id="v_286" type="type" route="ul" depart="844" />
    <vehicle id="v_287" type="type" route="rd" depart="845" />
    <vehicle id="v_288" type="type" route="rd" depart="847" />
    <vehicle id="v_289" type="type" route="rl" depart="848" />
    <vehicle id="v_290" type="type" route="lu" depart="849" />
    <vehicle id="v_291" type="type" route="ud" depart="851" />
    <vehicle id="v_292" type="type" route="dl" depart="855" />
    <vehicle id="v_293" type="type" route="ld" depart="856" />
    <vehicle id="v_294" type="type" route="lr" depart="857" />
    <vehicle id="v_295" type="type" route="du" depart="861" />
    <vehicle id="v_296" type="type" route="lu" depart="864" />
    <vehicle id="v_297" type="type" route="ud" depart="866" />
    <vehicle id="v_298" type="type" route="ur" depart="867" />
    <vehicle id="v_299" type="type" route="rl" depart="868" />
    <vehicle id="v_300" type="type" route="dl" depart="874" />
    <vehicle id="v_301" type="type" route="lu" depart="876" />
    <vehicle id="v_302" type="type" route="lr" depart="877" />
    <vehicle id="v_303" type="type" route="du" depart="881" />
    <vehicle id="v_304" type="type" route="rd" depart="887" />
    <vehicle id="v_305" type="type" route="du" depart="890" />
    <vehicle id="v_306" type="type" route="ud" depart="891" />
    <vehicle id="v_307" type="type" route="ud" depart="892" />
    <vehicle id="v_308" type="type" route="ul" depart="895" />
    <vehicle id="v_309" type="type" route="ud" depart="898" />
    <vehicle id="v_310" type="type" route="rl" depart="904" />
    <vehicle id="v_311" type="type" route="lr" depart="908" />
    <vehicle id="v_312" type="type" route="rl" depart="913" />
    <vehicle id="v_313" type="type" route="lr" depart="921" />
    <vehicle id="v_314" type="type" route="ur" depart="923" />
    <vehicle id="v_315" type="type" route="rl" depart="924" />
    <vehicle id="v_316" type="type" route="ur" depart="927" />
    <vehicle id="v_317" type="type" route="lr" depart="930" />
    <vehicle id="v_318" type="type" route="dl" depart="932" />
    <vehicle id="v_319" type="type" route="dr" depart="933" />
    <vehicle id="v_320" type="type" route="rl" depart="935" />
    <vehicle id="v_321" type="type" route="ul" depart="939" />
    <vehicle id="v_322" type="type" route="ld" depart="940" />
    <vehicle id="v_323" type="type" route="ud" depart="941" />
    <vehicle id="v_324" type="type" route="lr" depart="942" />
    <vehicle id="v_325" type="type" route="dl" depart="946" />
    <vehicle id="v_326" type="type" route="dr" depart="947" />
    <vehicle id="v_327" type="type" route="lr" depart="948" />
    <vehicle id="v_328" type="type" route="dr" depart="952" />
    <vehicle id="v_329" type="type" route="ru" depart="954" />
    <vehicle id="v_330" type="type" route="ru" depart="955" />
    <vehicle id="v_331" type="type" route="ud" depart="958" />
    <vehicle id="v_332" type="type" route="lu" depart="959" />
    <vehicle id="v_333" type="type" route="dl" depart="961" />
    <vehicle id="v_334" type="type" route="lu" depart="966" />
    <vehicle id="v_335" type="type" route="ul" depart="967" />
    <vehicle id="v_336" type="type" route="rd" depart="969" />
    <vehicle id="v_337" type="type" route="ul" depart="974" />
    <vehicle id="v_338" type="type" route="ld" depart="976" />
    <vehicle id="v_339" type="type" route="dr" depart="981" />
    <vehicle id="v_340" type="type" route="rd" depart="985" />
    <vehicle id="v_341" type="type" route="ur" depart="986" />
    <vehicle id="v_342" type="type" route="lr" depart="987" />
    <vehicle id="v_343" type="type" route="dl" depart="988" />
    <vehicle id="v_344" type="type" route="rd" depart="989" />
    <vehicle id="v_345" type="type" route="ud" depart="993" />
    <vehicle id="v_346" type="type" route="ru" depart="994" />
    <vehicle id="v_347" type="type" route="ur" depart="995" />
    <vehicle id="v_348" type="type" route="lr" depart="998" />
    <vehicle id="v_349" type="type" route="ud" depart="1009" />
    <vehicle id="v_350" type="type" route="du" depart="1015" />
    <vehicle id="v_351" type="type" route="rl" depart="1017" />
    <vehicle id="v_352" type="type" route="ud" depart="1018" />
    <vehicle id="v_353" type="type" route="du" depart="1028" />
    <vehicle id="v_354" type="type" route="lr" depart="1035" />
    <vehicle id="v_355" type="type" route="ru" depart="1036" />
    <vehicle id="v_356" type="type" route="lr" depart="1046" />
    <vehicle id="v_357" type="type" route="ud" depart="1048" />
    <vehicle id="v_358" type="type" route="lr" depart="1051" />
    <vehicle id="v_359" type="type" route="ud" depart="1054" />
    <vehicle id="v_360" type="type" route="rd" depart="1056" />
    <vehicle id="v_361" type="type" route="lr" depart="1057" />
    <vehicle id="v_362" type="type" route="dr" depart="1062" />
    <vehicle id="v_363" type="type" route="ur" depart="1064" />
    <vehicle id="v_364" type="type" route="ru" depart="1074" />
    <vehicle id="v_365" type="type" route="ur" depart="1077" />
    <vehicle id="v_366" type="type" route="rl" depart="1078" />
    <vehicle id="v_367" type="type" route="dl" depart="1080" />
    <vehicle id="v_368" type="type" route="rd" depart="1083" />
    <vehicle id="v_369" type="type" route="ur" depart="1087" />
    <vehicle id="v_370" type="type" route="du" depart="1091" />
    <vehicle id="v_371" type="type" route="rd" depart="1092" />
    <vehicle id="v_372" type="type" route="du" depart="1094" />
    <vehicle id="v_373" type="type" route="ru" depart="1098" />
    <vehicle id="v_374" type="type" route="du" depart="1099" />
    <vehicle id="v_375" type="type" route="lr" depart="1101" />
    <vehicle id="v_376" type="type" route="dr" depart="1105" />
    <vehicle id="v_377" type="type" route="ru" depart="1108" />
    <vehicle id="v_378" type="type" route="rl" depart="1110" />
    <vehicle id="v_379" type="type" route="du" depart="1111" />
    <vehicle id="v_380" type="type" route="dl" depart="1114" />
    <vehicle id="v_381" type="type" route="ur" depart="1116" />
    <vehicle id="v_382" type="type" route="dl" depart="1117" />
    <vehicle id="v_383" type="type" route="dr" depart="1118" />
    <vehicle id="v_384" type="type" route="ru" depart="1119" />
    <vehicle id="v_385" type="type" route="ru" depart="1127" />
    <vehicle id="v_386" type="type" route="ud" depart="1128" />
    <vehicle id="v_387" type="type" route="rl" depart="1132" />
    <vehicle id="v_388" type="type" route="ru" depart="1140" />
    <vehicle id="v_389" type="type" route="rl" depart="1145" />
    <vehicle id="v_390" type="type" route="ud" depart="1146" />
    <vehicle id="v_391" type="type" route="dr" depart="1147" />
    <vehicle id="v_392" type="type" route="du" depart="1150" />
    <vehicle id="v_393" type="type" route="dl" depart="1152" />
    <vehicle id="v_394" type="type" route="ul" depart="1155" />
    <vehicle id="v_395" type="type" route="dr" depart="1157" />
    <vehicle id="v_396" type="type" route="lr" depart="1158" />
    <vehicle id="v_397" type="type" route="rd" depart="1159" />
    <vehicle id="v_398" type="type" route="dl" depart="1160" />
    <vehicle id="v_399" type="type" route="du" depart="1164" />
    <vehicle id="v_400" type="type" route="dr" depart="1165" />
    <vehicle id="v_401" type="type" route="ul" depart="1167" />
    <vehicle id="v_402" type="type" route="ru" depart="1169" />
    <vehicle id="v_403" type="type" route="ul" depart="1174" />
    <vehicle id="v_404" type="type" route="ur" depart="1182" />
    <vehicle id="v_405" type="type" route="du" depart="1183" />
    <vehicle id="v_406" type="type" route="ru" depart="1184" />
    <vehicle id="v_407" type="type" route="ru" depart="1185" />
    <vehicle id="v_408" type="type" route="rl" depart="1187" />
    <vehicle id="v_409" type="type" route="lr" depart="1191" />
    <vehicle id="v_410" type="type" route="rd" depart="1192" />
    <vehicle id="v_411" type="type" route="lr" depart="1194" />
    <vehicle id="v_412" type="type" route="ud" depart="1195" />
    <vehicle id="v_413" type="type" route="lu" depart="1202" />
    <vehicle id="v_414" type="type" route="ld" depart="1208" />
    <vehicle id="v_415" type="type" route="rl" depart="1210" />
    <vehicle id="v_416" type="type" route="ud" depart="1211" />
    <vehicle id="v_417" type="type" route="rl" depart="1212" />
    <vehicle id="v_418" type="type" route="ld" depart="1213" />
    <vehicle id="v_419" type="type" route="du" depart="1215" />
    <vehicle id="v_420" type="type" route="rd" depart="1217" />
    <vehicle id="v_421" type="type" route="lr" depart="1222" />
    <vehicle id="v_422" type="type" route="ld" depart="1228" />
    <vehicle id="v_423" type="type" route="ru" depart="1231" />
    <vehicle id="v_424" type="type" route="ud" depart="1245" />
    <vehicle id="v_425" type="type" route="ur" depart="1246" />
    <vehicle id="v_426" type="type" route="rl" depart="1250" />
    <vehicle id="v_427" type="type" route="ld" depart="1252" />
    <vehicle id="v_428" type="type" route="du" depart="1253" />
    <vehicle id="v_429" type="type" route="ur" depart="1254" />
    <vehicle id="v_430" type="type" route="lr" depart="1259" />
    <vehicle id="v_431" type="type" route="rl" depart="1265" />
    <vehicle id="v_432" type="type" route="ru" depart="1272" />
    <vehicle id="v_433" type="type" route="du" depart="1274" />
    <vehicle id="v_434" type="type" route="dl" depart="1275" />
    <vehicle id="v_435" type="type" route="ud" depart="1279" />
    <vehicle id="v_436" type="type" route="dr" depart="1280" />
    <vehicle id="v_437" type="type" route="rd" depart="1286" />
    <vehicle id="v_438" type="type" route="ur" depart="1294" />
    <vehicle id="v_439" type="type" route="ud" depart="1297" />
    <vehicle id="v_440" type="type" route="ur" depart="1299" />
    <vehicle id="v_441" type="type" route="lu" depart="1300" />
    <vehicle id="v_442" type="type" route="dl" depart="1301" />
    <vehicle id="v_443" type="type" route="lr" depart="1304" />
    <vehicle id="v_444" type="type" route="lr" depart="1306" />
    <vehicle id="v_445" type="type" route="dl" depart="1307" />
    <vehicle id="v_446" type="type" route="lr" depart="1308" />
    <vehicle id="v_447" type="type" route="ld" depart="1309" />
    <vehicle id="v_448" type="type" route="lr" depart="1310" />
    <vehicle id="v_449" type="type" route="ul" depart="1315" />
    <vehicle id="v_450" type="type" route="lr" depart="1316" />
    <vehicle id="v_451" type="type" route="ru" depart="1318" />
    <vehicle id="v_452" type="type" route="rl" depart="1324" />
    <vehicle id="v_453" type="type" route="ud" depart="1328" />
    <vehicle id="v_454" type="type" route="dr" depart="1330" />
    <vehicle id="v_455" type="type" route="ld" depart="1332" />
    <vehicle id="v_456" type="type" route="lu" depart="1333" />
    <vehicle id="v_457" type="type" route="rd" depart="1334" />
    <vehicle id="v_458" type="type" route="rd" depart="1336" />
    <vehicle id="v_459" type="type" route="ru" depart="1338" />
    <vehicle id="v_460" type="type" route="ru" depart="1340" />
    <vehicle id="v_461" type="type" route="ul" depart="1341" />
    <vehicle id="v_462" type="type" route="dr" depart="1342" />