<routes>
                <vType id="type" accel="0.8" decel="4.5" sigma="0.5" length="5" minGap="2.5" maxSpeed="16.67"         guiShape="passenger"/>
                
                <route id="4-5" edges="4t0 0t5" />
                <route id="4-6" edges="4t0 0t1 1t6" />
                <route id="4-7" edges="4t0 0t1 1t7" />
                <route id="4-8a" edges="4t0 0t1 1t2 2t8" />
                <route id="4-8b" edges="4t0 0t3 3t2 2t8" />
                <route id="4-9a" edges="4t0 0t1 1t2 2t9" />
                <route id="4-9b" edges="4t0 0t3 3t2 2t9" />
                <route id="4-10" edges="4t0 0t3 3t10" />
                <route id="4-11" edges="4t0 0t3 3t11" />
                <route id="4-4" edges="4t0 0t1 1t2 2t3 3t0 0t4" />
                <route id="5-6" edges="5t0 0t1 1t6" />
                <route id="5-7" edges="5t0 0t1 1t7" />
                <route id="5-8a" edges="5t0 0t1 1t2 2t8" />
                <route id="5-8b" edges="5t0 0t3 3t2 2t8" />
                <route id="5-9a" edges="5t0 0t1 1t2 2t9" />
                <route id="5-9b" edges="5t0 0t3 3t2 2t9" />
                <route id="5-10" edges="5t0 0t3 3t10" />
                <route id="5-11" edges="5t0 0t3 3t11" />
                <route id="5-4" edges="5t0 0t4" />
                <route id="5-5" edges="5t0 0t1 1t2 2t3 3t0 0t5" />                
                <route id="6-7" edges="6t1 1t7" />
                <route id="6-8" edges="6t1 1t2 2t8" />
                <route id="6-9" edges="6t1 1t2 2t9" />
                <route id="6-10a" edges="6t1 1t2 2t3 3t10" />
                <route id="6-10b" edges="6t1 1t0 0t3 3t10" />
                <route id="6-11a" edges="6t1 1t2 2t3 3t11" />
                <route id="6-11b" edges="6t1 1t0 0t3 3t11" />
                <route id="6-4" edges="6t1 1t0 0t4" />
                <route id="6-5" edges="6t1 1t0 0t5" />
                <route id="6-6" edges="6t1 1t2 2t3 3t0 0t1 1t6" />     
                <route id="7-8" edges="7t1 1t2 2t8" />
                <route id="7-9" edges="7t1 1t2 2t9" />
                <route id="7-10a" edges="7t1 1t2 2t3 3t10" />
                <route id="7-10b" edges="7t1 1t0 0t3 3t10" />
                <route id="7-11a" edges="7t1 1t2 2t3 3t11" />
                <route id="7-11b" edges="7t1 1t0 0t3 3t11" />
                <route id="7-4" edges="7t1 1t0 0t4" />
                <route id="7-5" edges="7t1 1t0 0t5" />
                <route id="7-6" edges="7t1 1t6" />
                <route id="7-7" edges="7t1 1t2 2t3 3t0 0t1 1t7" />                
                <route id="8-9" edges="8t2 2t9" />
                <route id="8-10" edges="8t2 2t3 3t10" />
                <route id="8-11" edges="8t2 2t3 3t11" />
                <route id="8-4a" edges="8t2 2t3 3t0 0t4" />
                <route id="8-4b" edges="8t2 2t1 1t0 0t4" />
                <route id="8-5a" edges="8t2 2t3 3t0 0t5" />
                <route id="8-5b" edges="8t2 2t1 1t0 0t5" />
                <route id="8-6" edges="8t2 2t1 1t6" />
                <route id="8-7" edges="8t2 2t1 1t7" />
                <route id="8-8" edges="8t2 2t3 3t0 0t1 1t2 2t8" />                
                <route id="9-10" edges="9t2 2t3 3t10" />
                <route id="9-11" edges="9t2 2t3 3t11" />
                <route id="9-4a" edges="9t2 2t3 3t0 0t4" />
                <route id="9-4b" edges="9t2 2t1 1t0 0t4" />
                <route id="9-5a" edges="9t2 2t3 3t0 0t5" />
                <route id="9-5b" edges="9t2 2t1 1t0 0t5" />
                <route id="9-6" edges="9t2 2t1 1t6" />
                <route id="9-7" edges="9t2 2t1 1t7" />
                <route id="9-8" edges="9t2 2t8" />
                <route id="9-9" edges="9t2 2t3 3t0 0t1 1t2 2t9" />                
                <route id="10-11" edges="10t3 3t11" />
                <route id="10-4" edges="10t3 3t0 0t4" />
                <route id="10-5" edges="10t3 3t0 0t5" />
                <route id="10-6a" edges="10t3 3t0 0t1 1t6" />
                <route id="10-6b" edges="10t3 3t2 2t1 1t6" />
                <route id="10-7a" edges="10t3 3t0 0t1 1t7" />
                <route id="10-7b" edges="10t3 3t2 2t1 1t7" />
                <route id="10-8" edges="10t3 3t2 2t8" />
                <route id="10-9" edges="10t3 3t2 2t9" />
                <route id="10-10" edges="10t3 3t0 0t1 1t2 2t3 3t10" />                                
                <route id="11-4" edges="11t3 3t0 0t4" />
                <route id="11-5" edges="11t3 3t0 0t5" />
                <route id="11-6a" edges="11t3 3t0 0t1 1t6" />
                <route id="11-6b" edges="11t3 3t2 2t1 1t6" />
                <route id="11-7a" edges="11t3 3t0 0t1 1t7" />
                <route id="11-7b" edges="11t3 3t2 2t1 1t7" />
                <route id="11-8" edges="11t3 3t2 2t8" />
                <route id="11-9" edges="11t3 3t2 2t9" />
                <route id="11-10" edges="11t3 3t10" />
                <route id="11-11" edges="11t3 3t0 0t1 1t2 2t3 3t11" />
    <vehicle id="v_0" type="type" route="5-8a" depart="0" />
    <vehicle id="v_1" type="type" route="4-7" depart="1" />
    <vehicle id="v_2" type="type" route="6-8" depart="1" />
    <vehicle id="v_3" type="type" route="4-11" depart="2" />
    <vehicle id="v_4" type="type" route="9-4a" depart="4" />
    <vehicle id="v_5" type="type" route="10-6a" depart="7" />
    <vehicle id="v_6" type="type" route="7-9" depart="10" />
    <vehicle id="v_7" type="type" route="9-7" depart="11" />
    <vehicle id="v_8" type="type" route="8-4a" depart="14" />
    <vehicle id="v_9" type="type" route="9-9" depart="14" />
    <vehicle id="v_10" type="type" route="7-6" depart="32" />
    <vehicle id="v_11" type="type" route="11-9" depart="34" />
    <vehicle id="v_12" type="type" route="9-10" depart="35" />
    <vehicle id="v_13" type="type" route="11-9" depart="38" />
    <vehicle id="v_14" type="type" route="4-6" depart="41" />
    <vehicle id="v_15" type="type" route="5-5" depart="44" />
    <vehicle id="v_16" type="type" route="6-9" depart="47" />
    <vehicle id="v_17" type="type" route="10-5" depart="49" />
    <vehicle id="v_18" type="type" route="5-11" depart="51" />
    <vehicle id="v_19" type="type" route="10-6a" depart="57" />
    <vehicle id="v_20" type="type" route="5-8b" depart="59" />
    <vehicle id="v_21" type="type" route="4-8a" depart="60" />
    <vehicle id="v_22" type="type" route="6-11b" depart="60" />
    <vehicle id="v_23" type="type" route="11-7b" depart="61" />
    <vehicle id="v_24" type="type" route="4-6" depart="63" />
    <vehicle id="v_25" type="type" route="10-6a" depart="64" />
    <vehicle id="v_26" type="type" route="7-6" depart="70" />
    <vehicle id="v_27" type="type" route="7-7" depart="71" />
    <vehicle id="v_28" type="type" route="5-9b" depart="76" />
    <vehicle id="v_29" type="type" route="11-7a" depart="81" />
    <vehicle id="v_30" type="type" route="10-6b" depart="85" />
    <vehicle id="v_31" type="type" route="5-11" depart="87" />
    <vehicle id="v_32" type="type" route="5-11" depart="98" />
    <vehicle id="v_33" type="type" route="5-9b" depart="99" />
    <vehicle id="v_34" type="type" route="5-6" depart="102" />
    <vehicle id="v_35" type="type" route="9-7" depart="103" />
    <vehicle id="v_36" type="type" route="10-9" depart="105" />
    <vehicle id="v_37" type="type" route="11-8" depart="108" />
    <vehicle id="v_38" type="type" route="10-7a" depart="114" />
    <vehicle id="v_39" type="type" route="11-10" depart="115" />
    <vehicle id="v_40" type="type" route="7-10b" depart="119" />
    <vehicle id="v_41" type="type" route="8-6" depart="121" />
    <vehicle id="v_42" type="type" route="4-11" depart="123" />
    <vehicle id="v_43" type="type" route="10-11" depart="123" />
    <vehicle id="v_44" type="type" route="9-7" depart="125" />
    <vehicle id="v_45" type="type" route="4-4" depart="135" />
    <vehicle id="v_46" type="type" route="11-10" depart="135" />
    <vehicle id="v_47" type="type" route="8-6" depart="136" />
    <vehicle id="v_48" type="type" route="9-4b" depart="139" />
    <vehicle id="v_49" type="type" route="11-6b" depart="139" />
    <vehicle id="v_50" type="type" route="8-6" depart="140" />
    <vehicle id="v_51" type="type" route="9-10" depart="141" />
    <vehicle id="v_52" type="type" route="9-4b" depart="142" />
    <vehicle id="v_53" type="type" route="9-4b" depart="158" />
    <vehicle id="v_54" type="type" route="11-4" depart="164" />
    <vehicle id="v_55" type="type" route="8-8" depart="165" />
    <vehicle id="v_56" type="type" route="11-4" depart="166" />
    <vehicle id="v_57" type="type" route="4-8b" depart="168" />
    <vehicle id="v_58" type="type" route="10-7a" depart="168" />
    <vehicle id="v_59" type="type" route="6-4" depart="171" />
    <vehicle id="v_60" type="type" route="5-9b" depart="172" />
    <vehicle id="v_61" type="type" route="9-11" depart="173" />
    <vehicle id="v_62" type="type" route="10-10" depart="173" />
    <vehicle id="v_63" type="type" route="6-5" depart="178" />
    <vehicle id="v_64" type="type" route="5-6" depart="180" />
    <vehicle id="v_65" type="type" route="7-11b" depart="186" />
    <vehicle id="v_66" type="type" route="10-11" depart="192" />
    <vehicle id="v_67" type="type" route="10-10" depart="198" />
    <vehicle id="v_68" type="type" route="7-9" depart="203" />
    <vehicle id="v_69" type="type" route="8-4b" depart="206" />
    <vehicle id="v_70" type="type" route="5-5" depart="208" />
    <vehicle id="v_71" type="type" route="7-10b" depart="208" />
    <vehicle id="v_72" type="type" route="11-7b" depart="216" />
    <vehicle id="v_73" type="type" route="7-11b" depart="220" />
    <vehicle id="v_74" type="type" route="4-9b" depart="225" />
    <vehicle id="v_75" type="type" route="5-8b" depart="232" />
    <vehicle id="v_76" type="type" route="11-7a" depart="232" />
    <vehicle id="v_77" type="type" route="8-9" depart="235" />
    <vehicle id="v_78" type="type" route="8-11" depart="237" />
    <vehicle id="v_79" type="type" route="10-7a" depart="237" />
    <vehicle id="v_80" type="type" route="4-10" depart="238" />
    <vehicle id="v_81" type="type" route="5-5" depart="246" />
    <vehicle id="v_82" type="type" route="9-8" depart="252" />
    <vehicle id="v_83" type="type" route="9-5b" depart="253" />
    <vehicle id="v_84" type="type" route="8-5a" depart="254" />
    <vehicle id="v_85" type="type" route="9-5b" depart="254" />
    <vehicle id="v_86" type="type" route="4-11" depart="255" />
    <vehicle id="v_87" type="type" route="6-8" depart="258" />
    <vehicle id="v_88" type="type" route="6-9" depart="259" />
    <vehicle id="v_89" type="type" route="10-11" depart="259" />
    <vehicle id="v_90" type="type" route="6-6" depart="260" />
    <vehicle id="v_91" type="type" route="10-5" depart="263" />
    <vehicle id="v_92" type="type" route="5-8b" depart="266" />
    <vehicle id="v_93" type="type" route="5-8b" depart="267" />
    <vehicle id="v_94" type="type" route="9-9" depart="278" />
    <vehicle id="v_95" type="type" route="7-10a" depart="279" />
    <vehicle id="v_96" type="type" route="10-4" depart="280" />
    <vehicle id="v_97" type="type" route="10-7b" depart="284" />
    <vehicle id="v_98" type="type" route="4-6" depart="291" />
    <vehicle id="v_99" type="type" route="6-4" depart="292" />
    <vehicle id="v_100" type="type" route="5-11" depart="294" />
    <vehicle id="v_101" type="type" route="11-9" depart="301" />
    <vehicle id="v_102" type="type" route="6-7" depart="304" />
    <vehicle id="v_103" type="type" route="4-4" depart="305" />
    <vehicle id="v_104" type="type" route="7-11a" depart="307" />
    <vehicle id="v_105" type="type" route="11-8" depart="307" />
    <vehicle id="v_106" type="type" route="5-10" depart="310" />
    <vehicle id="v_107" type="type" route="6-7" depart="316" />
    <vehicle id="v_108" type="type" route="8-9" depart="316" />
    <vehicle id="v_109" type="type" route="6-5" depart="322" />
    <vehicle id="v_110" type="type" route="7-6" depart="324" />
    <vehicle id="v_111" type="type" route="4-7" depart="328" />
    <vehicle id="v_112" type="type" route="8-4b" depart="329" />
    <vehicle id="v_113" type="type" route="6-11b" depart="330" />
    <vehicle id="v_114" type="type" route="9-8" depart="336" />
    <vehicle id="v_115" type="type" route="10-6b" depart="337" />
    <vehicle id="v_116" type="type" route="9-8" depart="338" />
    <vehicle id="v_117" type="type" route="11-4" depart="339" />
    <vehicle id="v_118" type="type" route="10-6b" depart="340" />
    <vehicle id="v_119" type="type" route="7-4" depart="341" />
    <vehicle id="v_120" type="type" route="5-10" depart="342" />
    <vehicle id="v_121" type="type" route="8-6" depart="348" />
    <vehicle id="v_122" type="type" route="6-6" depart="350" />
    <vehicle id="v_123" type="type" route="5-9b" depart="351" />
    <vehicle id="v_124" type="type" route="7-4" depart="355" />
    <vehicle id="v_125" type="type" route="5-8b" depart="358" />
    <vehicle id="v_126" type="type" route="9-9" depart="361" />
    <vehicle id="v_127" type="type" route="6-11a" depart="363" />
    <vehicle id="v_128" type="type" route="7-9" depart="364" />
    <vehicle id="v_129" type="type" route="4-7" depart="375" />
    <vehicle id="v_130" type="type" route="8-7" depart="375" />
    <vehicle id="v_131" type="type" route="6-5" depart="376" />
    <vehicle id="v_132" type="type" route="10-4" depart="379" />
    <vehicle id="v_133" type="type" route="6-10a" depart="381" />
    <vehicle id="v_134" type="type" route="10-8" depart="383" />
    <vehicle id="v_135" type="type" route="4-4" depart="384" />
    <vehicle id="v_136" type="type" route="7-10a" depart="384" />
    <vehicle id="v_137" type="type" route="11-9" depart="389" />
    <vehicle id="v_138" type="type" route="11-6a" depart="396" />
    <vehicle id="v_139" type="type" route="7-9" depart="398" />
    <vehicle id="v_140" type="type" route="9-4b" depart="398" />
    <vehicle id="v_141" type="type" route="4-11" depart="403" />
    <vehicle id="v_142" type="type" route="7-7" depart="403" />
    <vehicle id="v_143" type="type" route="10-7b" depart="403" />
    <vehicle id="v_144" type="type" route="5-9a" depart="407" />
    <vehicle id="v_145" type="type" route="9-6" depart="407" />
    <vehicle id="v_146" type="type" route="9-4a" depart="409" />
    <vehicle id="v_147" type="type" route="7-6" depart="410" />
    <vehicle id="v_148" type="type" route="5-10" depart="414" />
    <vehicle id="v_149" type="type" route="4-7" depart="415" />
    <vehicle id="v_150" type="type" route="11-4" depart="420" />
    <vehicle id="v_151" type="type" route="5-7" depart="424" />
    <vehicle id="v_152" type="type" route="5-5" depart="427" />
    <vehicle id="v_153" type="type" route="11-5" depart="433" />
    <vehicle id="v_154" type="type" route="6-5" depart="435" />
    <vehicle id="v_155" type="type" route="8-11" depart="437" />
    <vehicle id="v_156" type="type" route="8-5b" depart="444" />
    <vehicle id="v_157" type="type" route="10-9" depart="446" />
    <vehicle id="v_158" type="type" route="9-10" depart="447" />
    <vehicle id="v_159" type="type" route="11-8" depart="450" />
    <vehicle id="v_160" type="type" route="5-9b" depart="455" />
    <vehicle id="v_161" type="type" route="7-10a" depart="460" />
    <vehicle id="v_162" type="type" route="5-9b" depart="463" />
    <vehicle id="v_163" type="type" route="6-11a" depart="463" />
    <vehicle id="v_164" type="type" route="10-5" depart="467" />
    <vehicle id="v_165" type="type" route="7-7" depart="468" />
    <vehicle id="v_166" type="type" route="7-8" depart="473" />
    <vehicle id="v_167" type="type" route="11-7b" depart="473" />
    <vehicle id="v_168" type="type" route="10-8" depart="474" />
    <vehicle id="v_169" type="type" route="8-6" depart="478" />
    <vehicle id="v_170" type="type" route="4-9a" depart="480" />
    <vehicle id="v_171" type="type" route="10-7b" depart="482" />
    <vehicle id="v_172" type="type" route="7-8" depart="487" />
    <vehicle id="v_173" type="type" route="6-10a" depart="488" />
    <vehicle id="v_174" type="type" route="4-9a" depart="490" />
    <vehicle id="v_175" type="type" route="8-11" depart="490" />
    <vehicle id="v_176" type="type" route="9-11" depart="490" />
    <vehicle id="v_177" type="type" route="9-11" depart="495" />
    <vehicle id="v_178" type="type" route="10-9" depart="496" />
    <vehicle id="v_179" type="type" route="8-4b" depart="500" />
    <vehicle id="v_180" type="type" route="8-11" depart="503" />
    <vehicle id="v_181" type="type" route="11-5" depart="509" />
    <vehicle id="v_182" type="type" route="9-7" depart="514" />
    <vehicle id="v_183" type="type" route="11-6b" depart="515" />
    <vehicle id="v_184" type="type" route="8-5b" depart="517" />
    <vehicle id="v_185" type="type" route="9-8" depart="520" />
    <vehicle id="v_186" type="type" route="5-5" depart="521" />
    <vehicle id="v_187" type="type" route="8-4b" depart="521" />
    <vehicle id="v_188" type="type" route="11-6b" depart="521" />
    <vehicle id="v_189" type="type" route="6-7" depart="525" />
    <vehicle id="v_190" type="type" route="7-11a" depart="529" />
    <vehicle id="v_191" type="type" route="8-8" depart="530" />
    <vehicle id="v_192" type="type" route="7-8" depart="532" />
    <vehicle id="v_193" type="type" route="4-9b" depart="538" />
    <vehicle id="v_194" type="type" route="7-6" depart="538" />
    <vehicle id="v_195" type="type" route="4-5" depart="544" />
    <vehicle id="v_196" type="type" route="9-8" depart="550" />
    <vehicle id="v_197" type="type" route="8-4a" depart="551" />
    <vehicle id="v_198" type="type" route="8-6" depart="555" />
    <vehicle id="v_199" type="type" route="11-7b" depart="555" />
    <vehicle id="v_200" type="type" route="11-6b" depart="557" />
    <vehicle id="v_201" type="type" route="10-6a" depart="560" />
    <vehicle id="v_202" type="type" route="8-7" depart="561" />
    <vehicle id="v_203" type="type" route="11-8" depart="562" />
    <vehicle id="v_204" type="type" route="6-9" depart="563" />
    <vehicle id="v_205" type="type" route="7-11b" depart="564" />
    <vehicle id="v_206" type="type" route="9-11" depart="564" />
    <vehicle id="v_207" type="type" route="7-10b" depart="565" />
    <vehicle id="v_208" type="type" route="4-11" depart="566" />
    <vehicle id="v_209" type="type" route="9-4a" depart="567" />
    <vehicle id="v_210" type="type" route="9-5b" depart="569" />
    <vehicle id="v_211" type="type" route="5-11" depart="578" />
    <vehicle id="v_212" type="type" route="6-9" depart="578" />
    <vehicle id="v_213" type="type" route="4-10" depart="580" />
    <vehicle id="v_214" type="type" route="8-8" depart="581" />
    <vehicle id="v_215" type="type" route="7-10a" depart="582" />
    <vehicle id="v_216" type="type" route="5-4" depart="590" />
    <vehicle id="v_217" type="type" route="9-11" depart="591" />
    <vehicle id="v_218" type="type" route="11-10" depart="591" />
    <vehicle id="v_219" type="type" route="8-4b" depart="592" />
    <vehicle id="v_220" type="type" route="9-10" depart="598" />
    <vehicle id="v_221" type="type" route="11-6a" depart="599" />
    <vehicle id="v_222" type="type" route="9-6" depart="600" />
    <vehicle id="v_223" type="type" route="5-7" depart="601" />
    <vehicle id="v_224" type="type" route="8-8" depart="604" />
    <vehicle id="v_225" type="type" route="10-6b" depart="605" />
    <vehicle id="v_226" type="type" route="6-10b" depart="607" />
    <vehicle id="v_227" type="type" route="7-7" depart="609" />
    <vehicle id="v_228" type="type" route="4-9a" depart="610" />
    <vehicle id="v_229" type="type" route="10-7b" depart="611" />
    <vehicle id="v_230" type="type" route="6-10b" depart="618" />
    <vehicle id="v_231" type="type" route="9-11" depart="624" />
    <vehicle id="v_232" type="type" route="9-9" depart="626" />
    <vehicle id="v_233" type="type" route="7-5" depart="630" />
    <vehicle id="v_234" type="type" route="9-9" depart="637" />
    <vehicle id="v_235" type="type" route="4-6" depart="640" />
    <vehicle id="v_236" type="type" route="11-11" depart="644" />
    <vehicle id="v_237" type="type" route="8-8" depart="645" />
    <vehicle id="v_238" type="type" route="6-7" depart="648" />
    <vehicle id="v_239" type="type" route="4-5" depart="649" />
    <vehicle id="v_240" type="type" route="8-8" depart="657" />
    <vehicle id="v_241" type="type" route="10-6a" depart="659" />
    <vehicle id="v_242" type="type" route="7-8" depart="662" />
    <vehicle id="v_243" type="type" route="9-11" depart="662" />
    <vehicle id="v_244" type="type" route="10-4" depart="663" />
    <vehicle id="v_245" type="type" route="6-4" depart="664" />
    <vehicle id="v_246" type="type" route="9-4b" depart="664" />
    <vehicle id="v_247" type="type" route="8-9" depart="668" />
    <vehicle id="v_248" type="type" route="4-8b" depart="669" />
    <vehicle id="v_249" type="type" route="5-7" depart="669" />
    <vehicle id="v_250" type="type" route="11-5" depart="670" />
    <vehicle id="v_251" type="type" route="9-4a" depart="671" />
    <vehicle id="v_252" type="type" route="11-8" depart="673" />
    <vehicle id="v_253" type="type" route="9-7" depart="674" />
    <vehicle id="v_254" type="type" route="9-9" depart="682" />
    <vehicle id="v_255" type="type" route="10-6b" depart="682" />
    <vehicle id="v_256" type="type" route="4-9a" depart="683" />
    <vehicle id="v_257" type="type" route="11-9" depart="683" />
    <vehicle id="v_258" type="type" route="6-10b" depart="685" />
    <vehicle id="v_259" type="type" route="10-6b" depart="686" />
    <vehicle id="v_260" type="type" route="7-10b" depart="698" />
    <vehicle id="v_261" type="type" route="11-6b" depart="699" />
    <vehicle id="v_262" type="type" route="8-4a" depart="700" />
    <vehicle id="v_263" type="type" route="4-10" depart="702" />
    <vehicle id="v_264" type="type" route="9-5b" depart="705" />
    <vehicle id="v_265" type="type" route="11-10" depart="711" />
    <vehicle id="v_266" type="type" route="8-9" depart="712" />
    <vehicle id="v_267" type="type" route="6-11a" depart="719" />
    <vehicle id="v_268" type="type" route="4-11" depart="723" />
    <vehicle id="v_269" type="type" route="9-11" depart="724" />
    <vehicle id="v_270" type="type" route="4-7" depart="728" />
    <vehicle id="v_271" type="type" route="7-10b" depart="731" />
    <vehicle id="v_272" type="type" route="11-7a" depart="740" />
    <vehicle id="v_273" type="type" route="9-5b" depart="741" />
    <vehicle id="v_274" type="type" route="8-9" depart="744" />
    <vehicle id="v_275" type="type" route="4-11" depart="745" />
    <vehicle id="v_276" type="type" route="10-6a" depart="746" />
    <vehicle id="v_277" type="type" route="6-6" depart="750" />
    <vehicle id="v_278" type="type" route="6-4" depart="753" />
    <vehicle id="v_279" type="type" route="5-7" depart="758" />
    <vehicle id="v_280" type="type" route="6-5" depart="759" />
    <vehicle id="v_281" type="type" route="6-6" depart="765" />
    <vehicle id="v_282" type="type" route="5-4" depart="769" />
    <vehicle id="v_283" type="type" route="6-7" depart="771" />
    <vehicle id="v_284" type="type" route="9-11" depart="780" />
    <vehicle id="v_285" type="type" route="11-6a" depart="782" />
    <vehicle id="v_286" type="type" route="4-6" depart="785" />
    <vehicle id="v_287" type="type" route="10-5" depart="787" />
    <vehicle id="v_288" type="type" route="7-10b" depart="788" />
    <vehicle id="v_289" type="type" route="7-4" depart="791" />
    <vehicle id="v_290" type="type" route="4-4" depart="793" />
    <vehicle id="v_291" type="type" route="5-10" depart="794" />
    <vehicle id="v_292" type="type" route="10-6a" depart="798" />
    <vehicle id="v_293" type="type" route="4-5" depart="801" />
    <vehicle id="v_294" type="type" route="5-7" depart="801" />
    <vehicle id="v_295" type="type" route="4-6" depart="805" />
    <vehicle id="v_296" type="type" route="4-6" depart="807" />
    <vehicle id="v_297" type="type" route="5-5" depart="807" />
    <vehicle id="v_298" type="type" route="9-11" depart="808" />
    <vehicle id="v_299" type="type" route="4-9b" depart="810" />
    <vehicle id="v_300" type="type" route="7-10a" depart="813" />
    <vehicle id="v_301" type="type" route="7-8" depart="817" />
    <vehicle id="v_302" type="type" route="5-6" depart="818" />
    <vehicle id="v_303" type="type" route="5-4" depart="819" />
    <vehicle id="v_304" type="type" route="6-8" depart="821" />
    <vehicle id="v_305" type="type" route="11-5" depart="825" />
    <vehicle id="v_306" type="type" route="4-11" depart="826" />
    <vehicle id="v_307" type="type" route="11-6a" depart="828" />
    <vehicle id="v_308" type="type" route="10-6a" depart="830" />
    <vehicle id="v_309" type="type" route="5-11" depart="832" />
    <vehicle id="v_310" type="type" route="8-5b" depart="833" />
    <vehicle id="v_311" type="type" route="7-9" depart="841" />
    <vehicle id="v_312" type="type" route="7-6" depart="842" />
    <vehicle id="v_313" type="type" route="11-9" depart="848" />
    <vehicle id="v_314" type="type" route="11-10" depart="849" />
    <vehicle id="v_315" type="type" route="4-8b" depart="850" />
    <vehicle id="v_316" type="type" route="4-5" depart="852" />
    <vehicle id="v_317" type="type" route="5-9a" depart="857" />
    <vehicle id="v_318" type="type" route="9-9" depart="857" />
    <vehicle id="v_319" type="type" route="10-8" depart="858" />
    <vehicle id="v_320" type="type" route="8-5b" depart="861" />
    <vehicle id="v_321" type="type" route="10-6b" depart="861" />
    <vehicle id="v_322" type="type" route="5-4" depart="863" />
    <vehicle id="v_323" type="type" route="7-11a" depart="864" />
    <vehicle id="v_324" type="type" route="11-6a" depart="864" />
    <vehicle id="v_325" type="type" route="5-7" depart="872" />
    <vehicle id="v_326" type="type" route="8-6" depart="872" />
    <vehicle id="v_327" type="type" route="5-8b" depart="876" />
    <vehicle id="v_328" type="type" route="7-10b" depart="878" />
    <vehicle id="v_329" type="type" route="10-7a" depart="882" />
    <vehicle id="v_330" type="type" route="10-5" depart="885" />
    <vehicle id="v_331" type="type" route="11-6a" depart="885" />
    <vehicle id="v_332" type="type" route="8-10" depart="887" />
    <vehicle id="v_333" type="type" route="5-6" depart="888" />
    <vehicle id="v_334" type="type" route="5-4" depart="889" />
    <vehicle id="v_335" type="type" route="7-4" depart="889" />
    <vehicle id="v_336" type="type" route="7-4" depart="892" />
    <vehicle id="v_337" type="type" route="6-9" depart="896" />
    <vehicle id="v_338" type="type" route="9-4a" depart="900" />
    <vehicle id="v_339" type="type" route="6-9" depart="902" />
    <vehicle id="v_340" type="type" route="6-5" depart="906" />
    <vehicle id="v_341" type="type" route="7-5" depart="907" />
    <vehicle id="v_342" type="type" route="4-9b" depart="910" />
    <vehicle id="v_343" type="type" route="4-6" depart="914" />
    <vehicle id="v_344" type="type" route="4-6" depart="921" />
    <vehicle id="v_345" type="type" route="9-11" depart="922" />
    <vehicle id="v_346" type="type" route="11-8" depart="923" />
    <vehicle id="v_347" type="type" route="6-4" depart="925" />
    <vehicle id="v_348" type="type" route="6-6" depart="935" />
    <vehicle id="v_349" type="type" route="10-9" depart="936" />
    <vehicle id="v_350" type="type" route="7-6" depart="938" />
    <vehicle id="v_351" type="type" route="8-4a" depart="942" />
    <vehicle id="v_352" type="type" route="9-5b" depart="944" />
    <vehicle id="v_353" type="type" route="4-4" depart="946" />
    <vehicle id="v_354" type="type" route="4-11" depart="948" />
    <vehicle id="v_355" type="type" route="8-6" depart="949" />
    <vehicle id="v_356" type="type" route="6-7" depart="953" />
    <vehicle id="v_357" type="type" route="8-5a" depart="957" />
    <vehicle id="v_358" type="type" route="4-9b" depart="958" />
    <vehicle id="v_359" type="type" route="9-4b" depart="962" />
    <vehicle id="v_360" type="type" route="10-9" depart="962" />
    <vehicle id="v_361" type="type" route="7-8" depart="972" />
    <vehicle id="v_362" type="type" route="5-11" depart="982" />
    <vehicle id="v_363" type="type" route="8-11" depart="984" />
    <vehicle id="v_364" type="type" route="4-9a" depart="987" />
    <vehicle id="v_365" type="type" route="4-9a" depart="989" />
    <vehicle id="v_366" type="type" route="11-11" depart="991" />
    <vehicle id="v_367" type="type" route="9-4b" depart="992" />
    <vehicle id="v_368" type="type" route="9-6" depart="998" />
    <vehicle id="v_369" type="type" route="5-8b" depart="1000" />
    <vehicle id="v_370" type="type" route="8-5a" depart="1003" />
    <vehicle id="v_371" type="type" route="8-4b" depart="1014" />
    <vehicle id="v_372" type="type" route="7-6" depart="1015" />
    <vehicle id="v_373" type="type" route="11-6b" depart="1018" />
    <vehicle id="v_374" type="type" route="8-10" depart="1021" />
    <vehicle id="v_375" type="type" route="8-8" depart="1025" />
    <vehicle id="v_376" type="type" route="4-5" depart="1028" />
    <vehicle id="v_377" type="type" route="8-5a" depart="1029" />
    <vehicle id="v_378" type="type" route="4-6" depart="1033" />
    <vehicle id="v_379" type="type" route="11-7b" depart="1034" />
    <vehicle id="v_380" type="type" route="6-11a" depart="1035" />
    <vehicle id="v_381" type="type" route="10-5" depart="1038" />
    <vehicle id="v_382" type="type" route="11-5" depart="1038" />
    <vehicle id="v_383" type="type" route="4-8a" depart="1040" />
    <vehicle id="v_384" type="type" route="11-5" depart="1045" />
    <vehicle id="v_385" type="type" route="10-9" depart="1047" />
    <vehicle id="v_386" type="type" route="5-8a" depart="1048" />
    <vehicle id="v_387" type="type" route="9-9" depart="1048" />