<?xml version="1.0" encoding="UTF-8"?>

<!-- generated on 2022-10-03 18:02:47 by Eclipse SUMO netconvert Version 1.13.0
<configuration xmlns:xsi="http://www.w3.org/2001/XMLSchema-instance" xsi:noNamespaceSchemaLocation="http://sumo.dlr.de/xsd/netconvertConfiguration.xsd">

    <input>
        <node-files value="multi_cross.nod.xml"/>
        <edge-files value="multi_cross.edg.xml"/>
        <connection-files value="multi_cross.con.xml"/>
    </input>

    <output>
        <output-file value="multi_cross.net.xml"/>
    </output>

    <report>
        <verbose value="true"/>
        <aggregate-warnings value="5"/>
    </report>

</configuration>
-->

<net version="1.9" junctionCornerDetail="5" limitTurnSpeed="5.50" xmlns:xsi="http://www.w3.org/2001/XMLSchema-instance" xsi:noNamespaceSchemaLocation="http://sumo.dlr.de/xsd/net_file.xsd">

    <location netOffset="150.00,150.00" convBoundary="0.00,0.00,300.00,300.00" origBoundary="-150.00,-150.00,150.00,150.00" projParameter="!"/>

    <edge id=":0_0" function="internal">
        <lane id=":0_0_0" index="0" speed="6.51" length="9.03" shape="195.20,210.40 194.85,207.95 193.80,206.20 192.05,205.15 189.60,204.80"/>
    </edge>
    <edge id=":0_1" function="internal">
        <lane id=":0_1_0" index="0" speed="19.44" length="21.40" shape="195.20,210.40 195.20,189.00"/>
        <lane id=":0_1_1" index="1" speed="19.44" length="21.40" shape="198.40,210.40 198.40,189.00"/>
    </edge>
    <edge id=":0_3" function="internal">
        <lane id=":0_3_0" index="0" speed="9.71" length="6.64" width="7.00" shape="198.40,210.40 199.19,204.32 199.43,203.87"/>
    </edge>
    <edge id=":0_14" function="internal">
        <lane id=":0_14_0" index="0" speed="9.71" length="14.74" width="7.00" shape="199.43,203.87 201.55,199.97 205.49,197.37 211.00,196.50"/>
    </edge>
    <edge id=":0_4" function="internal">
        <lane id=":0_4_0" index="0" speed="7.00" length="10.61" width="7.00" shape="211.00,204.80 207.72,205.15 205.38,206.20 203.97,207.95 203.50,210.40"/>
    </edge>
    <edge id=":0_5" function="internal">
        <lane id=":0_5_0" index="0" speed="19.44" length="21.40" shape="211.00,204.80 189.60,204.80"/>
        <lane id=":0_5_1" index="1" speed="19.44" length="21.40" shape="211.00,201.60 189.60,201.60"/>
    </edge>
    <edge id=":0_7" function="internal">
        <lane id=":0_7_0" index="0" speed="9.23" length="5.94" shape="211.00,201.60 206.53,200.47 205.45,199.69"/>
    </edge>
    <edge id=":0_15" function="internal">
        <lane id=":0_15_0" index="0" speed="9.23" length="13.30" shape="205.45,199.69 202.47,197.53 199.53,193.47 198.40,189.00"/>
    </edge>
    <edge id=":0_8" function="internal">
        <lane id=":0_8_0" index="0" speed="7.13" length="11.07" width="7.00" shape="204.80,189.00 205.19,192.28 206.35,194.62 208.29,196.03 211.00,196.50"/>
    </edge>
    <edge id=":0_9" function="internal">
        <lane id=":0_9_0" index="0" speed="15.28" length="21.44" width="7.00" shape="204.80,189.00 203.50,210.40"/>
    </edge>
    <edge id=":0_10" function="internal">
        <lane id=":0_10_0" index="0" speed="9.13" length="5.25" shape="201.60,189.00 200.54,193.42 200.14,194.00"/>
    </edge>
    <edge id=":0_16" function="internal">
        <lane id=":0_16_0" index="0" speed="9.13" length="13.54" shape="200.14,194.00 197.77,197.47 193.92,200.45 189.60,201.60"/>
    </edge>
    <edge id=":0_11" function="internal">
        <lane id=":0_11_0" index="0" speed="6.66" length="9.52" shape="189.60,195.20 192.05,194.81 193.80,193.65 194.85,191.71 195.20,189.00"/>
    </edge>
    <edge id=":0_12" function="internal">
        <lane id=":0_12_0" index="0" speed="15.28" length="21.44" width="7.00" shape="189.60,195.20 211.00,196.50"/>
    </edge>
    <edge id=":0_13" function="internal">
        <lane id=":0_13_0" index="0" speed="9.60" length="5.77" width="7.00" shape="189.60,198.40 195.33,199.11"/>
    </edge>
    <edge id=":0_17" function="internal">
        <lane id=":0_17_0" index="0" speed="9.60" length="15.13" width="7.00" shape="195.33,199.11 195.68,199.15 200.03,201.40 202.63,205.15 203.50,210.40"/>
    </edge>
    <edge id=":1_0" function="internal">
        <lane id=":1_0_0" index="0" speed="6.66" length="9.52" shape="195.20,110.40 194.81,107.95 193.65,106.20 191.71,105.15 189.00,104.80"/>
    </edge>
    <edge id=":1_1" function="internal">
        <lane id=":1_1_0" index="0" speed="15.28" length="21.44" width="7.00" shape="195.20,110.40 196.50,89.00"/>
    </edge>
    <edge id=":1_2" function="internal">
        <lane id=":1_2_0" index="0" speed="9.60" length="5.77" width="7.00" shape="198.40,110.40 199.11,104.67"/>
    </edge>
    <edge id=":1_14" function="internal">
        <lane id=":1_14_0" index="0" speed="9.60" length="15.13" width="7.00" shape="199.11,104.67 199.15,104.32 201.40,99.97 205.15,97.37 210.40,96.50"/>
    </edge>
    <edge id=":1_3" function="internal">
        <lane id=":1_3_0" index="0" speed="6.51" length="9.03" shape="210.40,104.80 207.95,105.15 206.20,106.20 205.15,107.95 204.80,110.40"/>
    </edge>
    <edge id=":1_4" function="internal">
        <lane id=":1_4_0" index="0" speed="19.44" length="21.40" shape="210.40,104.80 189.00,104.80"/>
        <lane id=":1_4_1" index="1" speed="19.44" length="21.40" shape="210.40,101.60 189.00,101.60"/>
    </edge>
    <edge id=":1_6" function="internal">
        <lane id=":1_6_0" index="0" speed="9.71" length="6.64" width="7.00" shape="210.40,101.60 204.32,100.81 203.87,100.57"/>
    </edge>
    <edge id=":1_15" function="internal">
        <lane id=":1_15_0" index="0" speed="9.71" length="14.74" width="7.00" shape="203.87,100.57 199.97,98.45 197.37,94.51 196.50,89.00"/>
    </edge>
    <edge id=":1_7" function="internal">
        <lane id=":1_7_0" index="0" speed="7.00" length="10.61" width="7.00" shape="204.80,89.00 205.15,92.28 206.20,94.62 207.95,96.03 210.40,96.50"/>
    </edge>
    <edge id=":1_8" function="internal">
        <lane id=":1_8_0" index="0" speed="19.44" length="21.40" shape="204.80,89.00 204.80,110.40"/>
        <lane id=":1_8_1" index="1" speed="19.44" length="21.40" shape="201.60,89.00 201.60,110.40"/>
    </edge>
    <edge id=":1_10" function="internal">
        <lane id=":1_10_0" index="0" speed="9.23" length="5.94" shape="201.60,89.00 200.47,93.47 199.69,94.55"/>
    </edge>
    <edge id=":1_16" function="internal">
        <lane id=":1_16_0" index="0" speed="9.23" length="13.30" shape="199.69,94.55 197.53,97.53 193.47,100.47 189.00,101.60"/>
    </edge>
    <edge id=":1_11" function="internal">
        <lane id=":1_11_0" index="0" speed="7.13" length="11.07" width="7.00" shape="189.00,95.20 192.28,94.81 194.62,93.65 196.03,91.71 196.50,89.00"/>
    </edge>
    <edge id=":1_12" function="internal">
        <lane id=":1_12_0" index="0" speed="15.28" length="21.44" width="7.00" shape="189.00,95.20 210.40,96.50"/>
    </edge>
    <edge id=":1_13" function="internal">
        <lane id=":1_13_0" index="0" speed="9.13" length="5.25" shape="189.00,98.40 193.42,99.46 194.00,99.86"/>
    </edge>
    <edge id=":1_17" function="internal">
        <lane id=":1_17_0" index="0" speed="9.13" length="13.54" shape="194.00,99.86 197.47,102.22 200.45,106.08 201.60,110.40"/>
    </edge>
    <edge id=":10_0" function="internal">
        <lane id=":10_0_0" index="0" speed="4.88" length="7.45" shape="0.00,203.50 -1.91,202.22 -2.55,200.95 -1.91,199.68 0.00,198.40"/>
    </edge>
    <edge id=":11_0" function="internal">
        <lane id=":11_0_0" index="0" speed="4.88" length="7.45" shape="103.50,300.00 102.23,301.91 100.95,302.55 99.68,301.91 98.40,300.00"/>
    </edge>
    <edge id=":2_0" function="internal">
        <lane id=":2_0_0" index="0" speed="7.13" length="11.07" width="7.00" shape="95.20,111.00 94.81,107.72 93.65,105.38 91.71,103.97 89.00,103.50"/>
    </edge>
    <edge id=":2_1" function="internal">
        <lane id=":2_1_0" index="0" speed="15.28" length="21.44" width="7.00" shape="95.20,111.00 96.50,89.60"/>
    </edge>
    <edge id=":2_2" function="internal">
        <lane id=":2_2_0" index="0" speed="9.13" length="5.25" shape="98.40,111.00 99.46,106.58 99.86,106.00"/>
    </edge>
    <edge id=":2_14" function="internal">
        <lane id=":2_14_0" index="0" speed="9.13" length="13.54" shape="99.86,106.00 102.22,102.52 106.08,99.55 110.40,98.40"/>
    </edge>
    <edge id=":2_3" function="internal">
        <lane id=":2_3_0" index="0" speed="6.66" length="9.52" shape="110.40,104.80 107.95,105.19 106.20,106.35 105.15,108.29 104.80,111.00"/>
    </edge>
    <edge id=":2_4" function="internal">
        <lane id=":2_4_0" index="0" speed="15.28" length="21.44" width="7.00" shape="110.40,104.80 89.00,103.50"/>
    </edge>
    <edge id=":2_5" function="internal">
        <lane id=":2_5_0" index="0" speed="9.60" length="5.77" width="7.00" shape="110.40,101.60 104.67,100.89"/>
    </edge>
    <edge id=":2_15" function="internal">
        <lane id=":2_15_0" index="0" speed="9.60" length="15.13" width="7.00" shape="104.67,100.89 104.32,100.85 99.97,98.60 97.37,94.85 96.50,89.60"/>
    </edge>
    <edge id=":2_6" function="internal">
        <lane id=":2_6_0" index="0" speed="6.51" length="9.03" shape="104.80,89.60 105.15,92.05 106.20,93.80 107.95,94.85 110.40,95.20"/>
    </edge>
    <edge id=":2_7" function="internal">
        <lane id=":2_7_0" index="0" speed="19.44" length="21.40" shape="104.80,89.60 104.80,111.00"/>
        <lane id=":2_7_1" index="1" speed="19.44" length="21.40" shape="101.60,89.60 101.60,111.00"/>
    </edge>
    <edge id=":2_9" function="internal">
        <lane id=":2_9_0" index="0" speed="9.71" length="6.64" width="7.00" shape="101.60,89.60 100.81,95.68 100.57,96.13"/>
    </edge>
    <edge id=":2_16" function="internal">
        <lane id=":2_16_0" index="0" speed="9.71" length="14.74" width="7.00" shape="100.57,96.13 98.45,100.03 94.51,102.63 89.00,103.50"/>
    </edge>
    <edge id=":2_10" function="internal">
        <lane id=":2_10_0" index="0" speed="7.00" length="10.61" width="7.00" shape="89.00,95.20 92.28,94.85 94.62,93.80 96.03,92.05 96.50,89.60"/>
    </edge>
    <edge id=":2_11" function="internal">
        <lane id=":2_11_0" index="0" speed="19.44" length="21.40" shape="89.00,95.20 110.40,95.20"/>
        <lane id=":2_11_1" index="1" speed="19.44" length="21.40" shape="89.00,98.40 110.40,98.40"/>
    </edge>
    <edge id=":2_13" function="internal">
        <lane id=":2_13_0" index="0" speed="9.23" length="5.94" shape="89.00,98.40 93.47,99.53 94.55,100.31"/>
    </edge>
    <edge id=":2_17" function="internal">
        <lane id=":2_17_0" index="0" speed="9.23" length="13.30" shape="94.55,100.31 97.53,102.47 100.47,106.53 101.60,111.00"/>
    </edge>
    <edge id=":3_0" function="internal">
        <lane id=":3_0_0" index="0" speed="7.00" length="10.61" width="7.00" shape="95.20,211.00 94.85,207.72 93.80,205.38 92.05,203.97 89.60,203.50"/>
    </edge>
    <edge id=":3_1" function="internal">
        <lane id=":3_1_0" index="0" speed="19.44" length="21.40" shape="95.20,211.00 95.20,189.60"/>
        <lane id=":3_1_1" index="1" speed="19.44" length="21.40" shape="98.40,211.00 98.40,189.60"/>
    </edge>
    <edge id=":3_3" function="internal">
        <lane id=":3_3_0" index="0" speed="9.23" length="5.94" shape="98.40,211.00 99.53,206.53 100.31,205.45"/>
    </edge>
    <edge id=":3_14" function="internal">
        <lane id=":3_14_0" index="0" speed="9.23" length="13.30" shape="100.31,205.45 102.47,202.47 106.53,199.53 111.00,198.40"/>
    </edge>
    <edge id=":3_4" function="internal">
        <lane id=":3_4_0" index="0" speed="7.13" length="11.07" width="7.00" shape="111.00,204.80 107.72,205.19 105.38,206.35 103.97,208.29 103.50,211.00"/>
    </edge>
    <edge id=":3_5" function="internal">
        <lane id=":3_5_0" index="0" speed="15.28" length="21.44" width="7.00" shape="111.00,204.80 89.60,203.50"/>
    </edge>
    <edge id=":3_6" function="internal">
        <lane id=":3_6_0" index="0" speed="9.13" length="5.25" shape="111.00,201.60 106.58,200.54 106.00,200.14"/>
    </edge>
    <edge id=":3_15" function="internal">
        <lane id=":3_15_0" index="0" speed="9.13" length="13.54" shape="106.00,200.14 102.52,197.77 99.55,193.92 98.40,189.60"/>
    </edge>
    <edge id=":3_7" function="internal">
        <lane id=":3_7_0" index="0" speed="6.66" length="9.52" shape="104.80,189.60 105.19,192.05 106.35,193.80 108.29,194.85 111.00,195.20"/>
    </edge>
    <edge id=":3_8" function="internal">
        <lane id=":3_8_0" index="0" speed="15.28" length="21.44" width="7.00" shape="104.80,189.60 103.50,211.00"/>
    </edge>
    <edge id=":3_9" function="internal">
        <lane id=":3_9_0" index="0" speed="9.60" length="5.77" width="7.00" shape="101.60,189.60 100.89,195.33"/>
    </edge>
    <edge id=":3_16" function="internal">
        <lane id=":3_16_0" index="0" speed="9.60" length="15.13" width="7.00" shape="100.89,195.33 100.85,195.68 98.60,200.03 94.85,202.63 89.60,203.50"/>
    </edge>
    <edge id=":3_10" function="internal">
        <lane id=":3_10_0" index="0" speed="6.51" length="9.03" shape="89.60,195.20 92.05,194.85 93.80,193.80 94.85,192.05 95.20,189.60"/>
    </edge>
    <edge id=":3_11" function="internal">
        <lane id=":3_11_0" index="0" speed="19.44" length="21.40" shape="89.60,195.20 111.00,195.20"/>
        <lane id=":3_11_1" index="1" speed="19.44" length="21.40" shape="89.60,198.40 111.00,198.40"/>
    </edge>
    <edge id=":3_13" function="internal">
        <lane id=":3_13_0" index="0" speed="9.71" length="6.64" width="7.00" shape="89.60,198.40 95.68,199.19 96.13,199.43"/>
    </edge>
    <edge id=":3_17" function="internal">
        <lane id=":3_17_0" index="0" speed="9.71" length="14.74" width="7.00" shape="96.13,199.43 100.03,201.55 102.63,205.49 103.50,211.00"/>
    </edge>
    <edge id=":4_0" function="internal">
        <lane id=":4_0_0" index="0" speed="4.88" length="7.45" shape="203.50,300.00 202.22,301.91 200.95,302.55 199.68,301.91 198.40,300.00"/>
    </edge>
    <edge id=":5_0" function="internal">
        <lane id=":5_0_0" index="0" speed="4.88" length="7.45" shape="300.00,196.50 301.91,197.78 302.55,199.05 301.91,200.32 300.00,201.60"/>
    </edge>
    <edge id=":6_0" function="internal">
        <lane id=":6_0_0" index="0" speed="4.88" length="7.45" shape="300.00,96.50 301.91,97.77 302.55,99.05 301.91,100.32 300.00,101.60"/>
    </edge>
    <edge id=":7_0" function="internal">
        <lane id=":7_0_0" index="0" speed="4.88" length="7.45" shape="196.50,0.00 197.78,-1.91 199.05,-2.55 200.32,-1.91 201.60,0.00"/>
    </edge>
    <edge id=":8_0" function="internal">
        <lane id=":8_0_0" index="0" speed="4.88" length="7.45" shape="96.50,0.00 97.77,-1.91 99.05,-2.55 100.32,-1.91 101.60,0.00"/>
    </edge>
    <edge id=":9_0" function="internal">
        <lane id=":9_0_0" index="0" speed="4.88" length="7.45" shape="0.00,103.50 -1.91,102.23 -2.55,100.95 -1.91,99.68 0.00,98.40"/>
    </edge>

    <edge id="0t1" from="0" to="1" priority="78">
        <lane id="0t1_0" index="0" speed="19.44" length="78.60" shape="195.20,189.00 195.20,110.40"/>
        <lane id="0t1_1" index="1" speed="19.44" length="78.60" shape="198.40,189.00 198.40,110.40"/>
    </edge>
    <edge id="0t3" from="0" to="3" priority="78">
        <lane id="0t3_0" index="0" speed="19.44" length="78.60" shape="189.60,204.80 111.00,204.80"/>
        <lane id="0t3_1" index="1" speed="19.44" length="78.60" shape="189.60,201.60 111.00,201.60"/>
    </edge>
    <edge id="0t4" from="0" to="4" priority="46">
        <lane id="0t4_0" index="0" speed="11.11" length="89.60" width="7.00" shape="203.50,210.40 203.50,300.00"/>
    </edge>
    <edge id="0t5" from="0" to="5" priority="46">
        <lane id="0t5_0" index="0" speed="11.11" length="89.00" width="7.00" shape="211.00,196.50 300.00,196.50"/>
    </edge>
    <edge id="10t3" from="10" to="3" priority="78">
        <lane id="10t3_0" index="0" speed="19.44" length="89.60" shape="0.00,195.20 89.60,195.20"/>
        <lane id="10t3_1" index="1" speed="19.44" length="89.60" shape="0.00,198.40 89.60,198.40"/>
    </edge>
    <edge id="11t3" from="11" to="3" priority="78">
        <lane id="11t3_0" index="0" speed="19.44" length="89.00" shape="95.20,300.00 95.20,211.00"/>
        <lane id="11t3_1" index="1" speed="19.44" length="89.00" shape="98.40,300.00 98.40,211.00"/>
    </edge>
    <edge id="1t0" from="1" to="0" priority="78">
        <lane id="1t0_0" index="0" speed="19.44" length="78.60" shape="204.80,110.40 204.80,189.00"/>
        <lane id="1t0_1" index="1" speed="19.44" length="78.60" shape="201.60,110.40 201.60,189.00"/>
    </edge>
    <edge id="1t2" from="1" to="2" priority="78">
        <lane id="1t2_0" index="0" speed="19.44" length="78.60" shape="189.00,104.80 110.40,104.80"/>
        <lane id="1t2_1" index="1" speed="19.44" length="78.60" shape="189.00,101.60 110.40,101.60"/>
    </edge>
    <edge id="1t6" from="1" to="6" priority="46">
        <lane id="1t6_0" index="0" speed="11.11" length="89.60" width="7.00" shape="210.40,96.50 300.00,96.50"/>
    </edge>
    <edge id="1t7" from="1" to="7" priority="46">
        <lane id="1t7_0" index="0" speed="11.11" length="89.00" width="7.00" shape="196.50,89.00 196.50,0.00"/>
    </edge>
    <edge id="2t1" from="2" to="1" priority="78">
        <lane id="2t1_0" index="0" speed="19.44" length="78.60" shape="110.40,95.20 189.00,95.20"/>
        <lane id="2t1_1" index="1" speed="19.44" length="78.60" shape="110.40,98.40 189.00,98.40"/>
    </edge>
    <edge id="2t3" from="2" to="3" priority="78">
        <lane id="2t3_0" index="0" speed="19.44" length="78.60" shape="104.80,111.00 104.80,189.60"/>
        <lane id="2t3_1" index="1" speed="19.44" length="78.60" shape="101.60,111.00 101.60,189.60"/>
    </edge>
    <edge id="2t8" from="2" to="8" priority="46">
        <lane id="2t8_0" index="0" speed="11.11" length="89.60" width="7.00" shape="96.50,89.60 96.50,0.00"/>
    </edge>
    <edge id="2t9" from="2" to="9" priority="46">
        <lane id="2t9_0" index="0" speed="11.11" length="89.00" width="7.00" shape="89.00,103.50 0.00,103.50"/>
    </edge>
    <edge id="3t0" from="3" to="0" priority="78">
        <lane id="3t0_0" index="0" speed="19.44" length="78.60" shape="111.00,195.20 189.60,195.20"/>
        <lane id="3t0_1" index="1" speed="19.44" length="78.60" shape="111.00,198.40 189.60,198.40"/>
    </edge>
    <edge id="3t10" from="3" to="10" priority="46">
        <lane id="3t10_0" index="0" speed="11.11" length="89.60" width="7.00" shape="89.60,203.50 0.00,203.50"/>
    </edge>
    <edge id="3t11" from="3" to="11" priority="46">
        <lane id="3t11_0" index="0" speed="11.11" length="89.00" width="7.00" shape="103.50,211.00 103.50,300.00"/>
    </edge>
    <edge id="3t2" from="3" to="2" priority="78">
        <lane id="3t2_0" index="0" speed="19.44" length="78.60" shape="95.20,189.60 95.20,111.00"/>
        <lane id="3t2_1" index="1" speed="19.44" length="78.60" shape="98.40,189.60 98.40,111.00"/>
    </edge>
    <edge id="4t0" from="4" to="0" priority="78">
        <lane id="4t0_0" index="0" speed="19.44" length="89.60" shape="195.20,300.00 195.20,210.40"/>
        <lane id="4t0_1" index="1" speed="19.44" length="89.60" shape="198.40,300.00 198.40,210.40"/>
    </edge>
    <edge id="5t0" from="5" to="0" priority="78">
        <lane id="5t0_0" index="0" speed="19.44" length="89.00" shape="300.00,204.80 211.00,204.80"/>
        <lane id="5t0_1" index="1" speed="19.44" length="89.00" shape="300.00,201.60 211.00,201.60"/>
    </edge>
    <edge id="6t1" from="6" to="1" priority="78">
        <lane id="6t1_0" index="0" speed="19.44" length="89.60" shape="300.00,104.80 210.40,104.80"/>
        <lane id="6t1_1" index="1" speed="19.44" length="89.60" shape="300.00,101.60 210.40,101.60"/>
    </edge>
    <edge id="7t1" from="7" to="1" priority="78">
        <lane id="7t1_0" index="0" speed="19.44" length="89.00" shape="204.80,0.00 204.80,89.00"/>
        <lane id="7t1_1" index="1" speed="19.44" length="89.00" shape="201.60,0.00 201.60,89.00"/>
    </edge>
    <edge id="8t2" from="8" to="2" priority="78">
        <lane id="8t2_0" index="0" speed="19.44" length="89.60" shape="104.80,0.00 104.80,89.60"/>
        <lane id="8t2_1" index="1" speed="19.44" length="89.60" shape="101.60,0.00 101.60,89.60"/>
    </edge>
    <edge id="9t2" from="9" to="2" priority="78">
        <lane id="9t2_0" index="0" speed="19.44" length="89.00" shape="0.00,95.20 89.00,95.20"/>
        <lane id="9t2_1" index="1" speed="19.44" length="89.00" shape="0.00,98.40 89.00,98.40"/>
    </edge>

    <tlLogic id="0" type="static" programID="0" offset="0">
        <phase duration="60" state="GGGrrrrrGGrrrr"/>
        <phase duration="5"  state="yyyrrrrryyrrrr"/>
        <phase duration="30"  state="rrrGrrrrrrGrrr"/>
        <phase duration="5"  state="rrryrrrrrryrrr"/>
        <phase duration="60" state="rrrrGGGrrrrGGr"/>
        <phase duration="5"  state="rrrryyyrrrryyr"/>
        <phase duration="30"  state="rrrrrrrGrrrrrG"/>
        <phase duration="5"  state="rrrrrrryrrrrry"/>
    </tlLogic>
    <tlLogic id="1" type="static" programID="0" offset="0">
        <phase duration="60" state="GGrrrrrGGGrrrr"/>
        <phase duration="5"  state="yyrrrrryyyrrrr"/>
        <phase duration="30"  state="rrGrrrrrrrGrrr"/>
        <phase duration="5"  state="rryrrrrrrryrrr"/>
        <phase duration="60" state="rrrGGGrrrrrGGr"/>
        <phase duration="5"  state="rrryyyrrrrryyr"/>
        <phase duration="30"  state="rrrrrrGrrrrrrG"/>
        <phase duration="5"  state="rrrrrryrrrrrry"/>
    </tlLogic>
    <tlLogic id="2" type="static" programID="0" offset="0">
        <phase duration="60" state="GGrrrrGGGrrrrr"/>
        <phase duration="5"  state="yyrrrryyyrrrrr"/>
        <phase duration="30"  state="rrGrrrrrrGrrrr"/>
        <phase duration="5"  state="rryrrrrrryrrrr"/>
        <phase duration="60" state="rrrGGrrrrrGGGr"/>
        <phase duration="5"  state="rrryyrrrrryyyr"/>
        <phase duration="30"  state="rrrrrGrrrrrrrG"/>
        <phase duration="5"  state="rrrrryrrrrrrry"/>
    </tlLogic>
    <tlLogic id="3" type="static" programID="0" offset="0">
        <phase duration="60" state="GGGrrrrGGrrrrr"/>
        <phase duration="5"  state="yyyrrrryyrrrrr"/>
        <phase duration="30"  state="rrrGrrrrrGrrrr"/>
        <phase duration="5"  state="rrryrrrrryrrrr"/>
        <phase duration="60" state="rrrrGGrrrrGGGr"/>
        <phase duration="5"  state="rrrryyrrrryyyr"/>
        <phase duration="30"  state="rrrrrrGrrrrrrG"/>
        <phase duration="5"  state="rrrrrryrrrrrry"/>
    </tlLogic>

    <junction id="0" type="traffic_light" x="200.00" y="200.00" incLanes="4t0_0 4t0_1 5t0_0 5t0_1 1t0_0 1t0_1 3t0_0 3t0_1" intLanes=":0_0_0 :0_1_0 :0_1_1 :0_14_0 :0_4_0 :0_5_0 :0_5_1 :0_15_0 :0_8_0 :0_9_0 :0_16_0 :0_11_0 :0_12_0 :0_17_0" shape="193.60,210.40 207.00,210.40 207.44,208.18 208.00,207.40 208.78,206.84 209.78,206.51 211.00,206.40 211.00,193.00 208.44,192.56 207.55,192.00 206.91,191.22 206.53,190.22 206.40,189.00 193.60,189.00 193.16,191.56 192.60,192.45 191.82,193.09 190.82,193.47 189.60,193.60 189.60,206.40 191.82,206.84 192.60,207.40 193.16,208.18 193.49,209.18">
        <request index="0"  response="00000000000000" foes="00000001100000" cont="0"/>
        <request index="1"  response="10000010000000" foes="11110011100000" cont="0"/>
        <request index="2"  response="10000010000000" foes="11110011100000" cont="0"/>
        <request index="3"  response="10001110000000" foes="11001111100000" cont="1"/>
        <request index="4"  response="00001000000000" foes="10001000000000" cont="0"/>
        <request index="5"  response="00011000001111" foes="10011000001111" cont="0"/>
        <request index="6"  response="00011000001111" foes="10011000001111" cont="0"/>
        <request index="7"  response="01011000001110" foes="01011000001110" cont="1"/>
        <request index="8"  response="00000000000000" foes="01000000001000" cont="0"/>
        <request index="9"  response="10000010000000" foes="11000011111000" cont="0"/>
        <request index="10" response="10000010000110" foes="11000011100110" cont="1"/>
        <request index="11" response="00000000000110" foes="00000000000110" cont="0"/>
        <request index="12" response="00011100001110" foes="00011110001110" cont="0"/>
        <request index="13" response="00011001111110" foes="00011001111110" cont="1"/>
    </junction>
    <junction id="1" type="traffic_light" x="200.00" y="100.00" incLanes="0t1_0 0t1_1 6t1_0 6t1_1 7t1_0 7t1_1 2t1_0 2t1_1" intLanes=":1_0_0 :1_1_0 :1_14_0 :1_3_0 :1_4_0 :1_4_1 :1_15_0 :1_7_0 :1_8_0 :1_8_1 :1_16_0 :1_11_0 :1_12_0 :1_17_0" shape="193.60,110.40 206.40,110.40 206.84,108.18 207.40,107.40 208.18,106.84 209.18,106.51 210.40,106.40 210.40,93.00 208.18,92.56 207.40,92.00 206.84,91.22 206.51,90.22 206.40,89.00 193.00,89.00 192.56,91.56 192.00,92.45 191.22,93.09 190.22,93.47 189.00,93.60 189.00,106.40 191.56,106.84 192.45,107.40 193.09,108.18 193.47,109.18">
        <request index="0"  response="00000000000000" foes="00000000110000" cont="0"/>
        <request index="1"  response="10000001000000" foes="11110001110000" cont="0"/>
        <request index="2"  response="10001111000000" foes="11001111110000" cont="1"/>
        <request index="3"  response="00001100000000" foes="00001100000000" cont="0"/>
        <request index="4"  response="00011100000111" foes="10011100000111" cont="0"/>
        <request index="5"  response="00011100000111" foes="10011100000111" cont="0"/>
        <request index="6"  response="01111100000110" foes="01111100000110" cont="1"/>
        <request index="7"  response="00000000000000" foes="01000000000100" cont="0"/>
        <request index="8"  response="10000001000000" foes="11000001111100" cont="0"/>
        <request index="9"  response="10000001000000" foes="11000001111100" cont="0"/>
        <request index="10" response="10000001000010" foes="11000001110010" cont="1"/>
        <request index="11" response="00000000000010" foes="00000001000010" cont="0"/>
        <request index="12" response="00011110000110" foes="00011111000110" cont="0"/>
        <request index="13" response="00011100110110" foes="00011100110110" cont="1"/>
    </junction>
    <junction id="10" type="priority" x="0.00" y="200.00" incLanes="3t10_0" intLanes=":10_0_0" shape="0.00,200.00 0.00,207.00 0.00,200.00">
        <request index="0" response="0" foes="0" cont="0"/>
    </junction>
    <junction id="11" type="priority" x="100.00" y="300.00" incLanes="3t11_0" intLanes=":11_0_0" shape="100.00,300.00 107.00,300.00 100.00,300.00">
        <request index="0" response="0" foes="0" cont="0"/>
    </junction>
    <junction id="2" type="traffic_light" x="100.00" y="100.00" incLanes="3t2_0 3t2_1 1t2_0 1t2_1 8t2_0 8t2_1 9t2_0 9t2_1" intLanes=":2_0_0 :2_1_0 :2_14_0 :2_3_0 :2_4_0 :2_15_0 :2_6_0 :2_7_0 :2_7_1 :2_16_0 :2_10_0 :2_11_0 :2_11_1 :2_17_0" shape="93.60,111.00 106.40,111.00 106.84,108.44 107.40,107.55 108.18,106.91 109.18,106.53 110.40,106.40 110.40,93.60 108.18,93.16 107.40,92.60 106.84,91.82 106.51,90.82 106.40,89.60 93.00,89.60 92.56,91.82 92.00,92.60 91.22,93.16 90.22,93.49 89.00,93.60 89.00,107.00 91.56,107.44 92.45,108.00 93.09,108.78 93.47,109.78">
        <request index="0"  response="00000000000000" foes="00001000010000" cont="0"/>
        <request index="1"  response="10000000100000" foes="11111000110000" cont="0"/>
        <request index="2"  response="10000110100000" foes="11100110110000" cont="1"/>
        <request index="3"  response="00000110000000" foes="00000110000000" cont="0"/>
        <request index="4"  response="00001110000111" foes="10001110000111" cont="0"/>
        <request index="5"  response="01111110000110" foes="01111110000110" cont="1"/>
        <request index="6"  response="00000000000000" foes="01100000000000" cont="0"/>
        <request index="7"  response="10000000100000" foes="11100000111100" cont="0"/>
        <request index="8"  response="10000000100000" foes="11100000111100" cont="0"/>
        <request index="9"  response="10000000100011" foes="11100000110011" cont="1"/>
        <request index="10" response="00000000000010" foes="00000000100010" cont="0"/>
        <request index="11" response="00001111000110" foes="00001111100110" cont="0"/>
        <request index="12" response="00001111000110" foes="00001111100110" cont="0"/>
        <request index="13" response="00001110010110" foes="00001110010110" cont="1"/>
    </junction>
    <junction id="3" type="traffic_light" x="100.00" y="200.00" incLanes="11t3_0 11t3_1 0t3_0 0t3_1 2t3_0 2t3_1 10t3_0 10t3_1" intLanes=":3_0_0 :3_1_0 :3_1_1 :3_14_0 :3_4_0 :3_5_0 :3_15_0 :3_7_0 :3_8_0 :3_16_0 :3_10_0 :3_11_0 :3_11_1 :3_17_0" shape="93.60,211.00 107.00,211.00 107.44,208.44 108.00,207.55 108.78,206.91 109.78,206.53 111.00,206.40 111.00,193.60 108.44,193.16 107.55,192.60 106.91,191.82 106.53,190.82 106.40,189.60 93.60,189.60 93.16,191.82 92.60,192.60 91.82,193.16 90.82,193.49 89.60,193.60 89.60,207.00 91.82,207.44 92.60,208.00 93.16,208.78 93.49,209.78">
        <request index="0"  response="00000000000000" foes="00001000100000" cont="0"/>
        <request index="1"  response="10000001000000" foes="11111001100000" cont="0"/>
        <request index="2"  response="10000001000000" foes="11111001100000" cont="0"/>
        <request index="3"  response="10000101000000" foes="11100101100000" cont="1"/>
        <request index="4"  response="00000100000000" foes="10000100000000" cont="0"/>
        <request index="5"  response="00001100001111" foes="10001100001111" cont="0"/>
        <request index="6"  response="01101100001110" foes="01101100001110" cont="1"/>
        <request index="7"  response="00000000000000" foes="01100000000000" cont="0"/>
        <request index="8"  response="10000001000000" foes="11100001111000" cont="0"/>
        <request index="9"  response="10000001000111" foes="11100001100111" cont="1"/>