<routes>
                <vType id="type" accel="0.8" decel="4.5" sigma="0.5" length="5" minGap="2.5" maxSpeed="16.67"         guiShape="passenger"/>
                
                <route id="4-5" edges="4t0 0t5" />
                <route id="4-6" edges="4t0 0t1 1t6" />
                <route id="4-7" edges="4t0 0t1 1t7" />
                <route id="4-8a" edges="4t0 0t1 1t2 2t8" />
                <route id="4-8b" edges="4t0 0t3 3t2 2t8" />
                <route id="4-9a" edges="4t0 0t1 1t2 2t9" />
                <route id="4-9b" edges="4t0 0t3 3t2 2t9" />
                <route id="4-10" edges="4t0 0t3 3t10" />
                <route id="4-11" edges="4t0 0t3 3t11" />
                <route id="4-4" edges="4t0 0t1 1t2 2t3 3t0 0t4" />
                <route id="5-6" edges="5t0 0t1 1t6" />
                <route id="5-7" edges="5t0 0t1 1t7" />
                <route id="5-8a" edges="5t0 0t1 1t2 2t8" />
                <route id="5-8b" edges="5t0 0t3 3t2 2t8" />
                <route id="5-9a" edges="5t0 0t1 1t2 2t9" />
                <route id="5-9b" edges="5t0 0t3 3t2 2t9" />
                <route id="5-10" edges="5t0 0t3 3t10" />
                <route id="5-11" edges="5t0 0t3 3t11" />
                <route id="5-4" edges="5t0 0t4" />
                <route id="5-5" edges="5t0 0t1 1t2 2t3 3t0 0t5" />                
                <route id="6-7" edges="6t1 1t7" />
                <route id="6-8" edges="6t1 1t2 2t8" />
                <route id="6-9" edges="6t1 1t2 2t9" />
                <route id="6-10a" edges="6t1 1t2 2t3 3t10" />
                <route id="6-10b" edges="6t1 1t0 0t3 3t10" />
                <route id="6-11a" edges="6t1 1t2 2t3 3t11" />
                <route id="6-11b" edges="6t1 1t0 0t3 3t11" />
                <route id="6-4" edges="6t1 1t0 0t4" />
                <route id="6-5" edges="6t1 1t0 0t5" />
                <route id="6-6" edges="6t1 1t2 2t3 3t0 0t1 1t6" />     
                <route id="7-8" edges="7t1 1t2 2t8" />
                <route id="7-9" edges="7t1 1t2 2t9" />
                <route id="7-10a" edges="7t1 1t2 2t3 3t10" />
                <route id="7-10b" edges="7t1 1t0 0t3 3t10" />
                <route id="7-11a" edges="7t1 1t2 2t3 3t11" />
                <route id="7-11b" edges="7t1 1t0 0t3 3t11" />
                <route id="7-4" edges="7t1 1t0 0t4" />
                <route id="7-5" edges="7t1 1t0 0t5" />
                <route id="7-6" edges="7t1 1t6" />
                <route id="7-7" edges="7t1 1t2 2t3 3t0 0t1 1t7" />                
                <route id="8-9" edges="8t2 2t9" />
                <route id="8-10" edges="8t2 2t3 3t10" />
                <route id="8-11" edges="8t2 2t3 3t11" />
                <route id="8-4a" edges="8t2 2t3 3t0 0t4" />
                <route id="8-4b" edges="8t2 2t1 1t0 0t4" />
                <route id="8-5a" edges="8t2 2t3 3t0 0t5" />
                <route id="8-5b" edges="8t2 2t1 1t0 0t5" />
                <route id="8-6" edges="8t2 2t1 1t6" />
                <route id="8-7" edges="8t2 2t1 1t7" />
                <route id="8-8" edges="8t2 2t3 3t0 0t1 1t2 2t8" />                
                <route id="9-10" edges="9t2 2t3 3t10" />
                <route id="9-11" edges="9t2 2t3 3t11" />
                <route id="9-4a" edges="9t2 2t3 3t0 0t4" />
                <route id="9-4b" edges="9t2 2t1 1t0 0t4" />
                <route id="9-5a" edges="9t2 2t3 3t0 0t5" />
                <route id="9-5b" edges="9t2 2t1 1t0 0t5" />
                <route id="9-6" edges="9t2 2t1 1t6" />
                <route id="9-7" edges="9t2 2t1 1t7" />
                <route id="9-8" edges="9t2 2t8" />
                <route id="9-9" edges="9t2 2t3 3t0 0t1 1t2 2t9" />                
                <route id="10-11" edges="10t3 3t11" />
                <route id="10-4" edges="10t3 3t0 0t4" />
                <route id="10-5" edges="10t3 3t0 0t5" />
                <route id="10-6a" edges="10t3 3t0 0t1 1t6" />
                <route id="10-6b" edges="10t3 3t2 2t1 1t6" />
                <route id="10-7a" edges="10t3 3t0 0t1 1t7" />
                <route id="10-7b" edges="10t3 3t2 2t1 1t7" />
                <route id="10-8" edges="10t3 3t2 2t8" />
                <route id="10-9" edges="10t3 3t2 2t9" />
                <route id="10-10" edges="10t3 3t0 0t1 1t2 2t3 3t10" />                                
                <route id="11-4" edges="11t3 3t0 0t4" />
                <route id="11-5" edges="11t3 3t0 0t5" />
                <route id="11-6a" edges="11t3 3t0 0t1 1t6" />
                <route id="11-6b" edges="11t3 3t2 2t1 1t6" />
                <route id="11-7a" edges="11t3 3t0 0t1 1t7" />
                <route id="11-7b" edges="11t3 3t2 2t1 1t7" />
                <route id="11-8" edges="11t3 3t2 2t8" />
                <route id="11-9" edges="11t3 3t2 2t9" />
                <route id="11-10" edges="11t3 3t10" />
                <route id="11-11" edges="11t3 3t0 0t1 1t2 2t3 3t11" />
    <vehicle id="v_0" type="type" route="7-6" depart="2" />
    <vehicle id="v_1" type="type" route="7-10b" depart="15" />
    <vehicle id="v_2" type="type" route="7-6" depart="33" />
    <vehicle id="v_3" type="type" route="11-9" depart="35" />
    <vehicle id="v_4" type="type" route="9-10" depart="36" />
    <vehicle id="v_5" type="type" route="7-7" depart="45" />
    <vehicle id="v_6" type="type" route="8-11" depart="48" />
    <vehicle id="v_7" type="type" route="8-6" depart="52" />
    <vehicle id="v_8" type="type" route="5-8b" depart="59" />
    <vehicle id="v_9" type="type" route="7-11a" depart="84" />
    <vehicle id="v_10" type="type" route="4-11" depart="109" />
    <vehicle id="v_11" type="type" route="11-10" depart="126" />
    <vehicle id="v_12" type="type" route="5-4" depart="140" />
    <vehicle id="v_13" type="type" route="7-10b" depart="144" />
    <vehicle id="v_14" type="type" route="4-10" depart="145" />
    <vehicle id="v_15" type="type" route="4-5" depart="172" />
    <vehicle id="v_16" type="type" route="11-7b" depart="223" />
    <vehicle id="v_17" type="type" route="7-11b" depart="227" />
    <vehicle id="v_18" type="type" route="11-4" depart="242" />
    <vehicle id="v_19" type="type" route="9-5b" depart="261" />
    <vehicle id="v_20" type="type" route="8-5a" depart="262" />
    <vehicle id="v_21" type="type" route="8-10" depart="266" />
    <vehicle id="v_22" type="type" route="11-6b" depart="274" />
    <vehicle id="v_23" type="type" route="7-9" depart="300" />
    <vehicle id="v_24" type="type" route="8-6" depart="311" />
    <vehicle id="v_25" type="type" route="10-10" depart="314" />
    <vehicle id="v_26" type="type" route="5-9a" depart="317" />
    <vehicle id="v_27" type="type" route="9-6" depart="317" />
    <vehicle id="v_28" type="type" route="11-8" depart="319" />
    <vehicle id="v_29" type="type" route="6-9" depart="338" />
    <vehicle id="v_30" type="type" route="10-6b" depart="339" />
    <vehicle id="v_31" type="type" route="8-5b" depart="340" />
    <vehicle id="v_32" type="type" route="8-8" depart="361" />
    <vehicle id="v_33" type="type" route="9-4b" depart="369" />
    <vehicle id="v_34" type="type" route="9-9" depart="396" />
    <vehicle id="v_35" type="type" route="4-7" depart="397" />
    <vehicle id="v_36" type="type" route="9-4a" depart="409" />
    <vehicle id="v_37" type="type" route="5-10" depart="421" />
    <vehicle id="v_38" type="type" route="11-4" depart="434" />
    <vehicle id="v_39" type="type" route="5-10" depart="459" />
    <vehicle id="v_40" type="type" route="7-8" depart="462" />
    <vehicle id="v_41" type="type" route="4-9a" depart="470" />
    <vehicle id="v_42" type="type" route="6-9" depart="475" />
    <vehicle id="v_43" type="type" route="10-7b" depart="498" />
    <vehicle id="v_44" type="type" route="7-8" depart="503" />
    <vehicle id="v_45" type="type" route="4-6" depart="507" />
    <vehicle id="v_46" type="type" route="6-5" depart="513" />
    <vehicle id="v_47" type="type" route="11-10" depart="537" />
    <vehicle id="v_48" type="type" route="7-7" depart="538" />
    <vehicle id="v_49" type="type" route="10-6b" depart="538" />
    <vehicle id="v_50" type="type" route="5-8b" depart="539" />
    <vehicle id="v_51" type="type" route="4-5" depart="550" />
    <vehicle id="v_52" type="type" route="9-6" depart="555" />
    <vehicle id="v_53" type="type" route="9-4b" depart="584" />
    <vehicle id="v_54" type="type" route="7-6" depart="610" />
    <vehicle id="v_55" type="type" route="6-7" depart="619" />
    <vehicle id="v_56" type="type" route="7-4" depart="621" />
    <vehicle id="v_57" type="type" route="9-9" depart="630" />
    <vehicle id="v_58" type="type" route="6-8" depart="646" />
    <vehicle id="v_59" type="type" route="6-6" depart="648" />
    <vehicle id="v_60" type="type" route="4-4" depart="680" />
    <vehicle id="v_61" type="type" route="9-11" depart="692" />
    <vehicle id="v_62" type="type" route="6-9" depart="695" />
    <vehicle id="v_63" type="type" route="8-8" depart="706" />
    <vehicle id="v_64" type="type" route="11-9" depart="726" />
    <vehicle id="v_65" type="type" route="10-5" depart="737" />
    <vehicle id="v_66" type="type" route="4-4" depart="821" />
    <vehicle id="v_67" type="type" route="8-10" depart="833" />
    <vehicle id="v_68" type="type" route="11-8" depart="838" />
    <vehicle id="v_69" type="type" route="9-8" depart="855" />
    <vehicle id="v_70" type="type" route="8-11" depart="858" />
    <vehicle id="v_71" type="type" route="11-7a" depart="887" />
    <vehicle id="v_72" type="type" route="7-7" depart="888" />
    <vehicle id="v_73" type="type" route="10-6b" depart="892" />
    <vehicle id="v_74" type="type" route="8-4b" depart="895" />
    <vehicle id="v_75" type="type" route="7-9" depart="903" />
    <vehicle id="v_76" type="type" route="7-11b" depart="914" />
    <vehicle id="v_77" type="type" route="9-4a" depart="917" />
    <vehicle id="v_78" type="type" route="11-6a" depart="934" />
    <vehicle id="v_79" type="type" route="11-10" depart="938" />
    <vehicle id="v_80" type="type" route="11-5" depart="946" />
    <vehicle id="v_81" type="type" route="8-6" depart="958" />
    <vehicle id="v_82" type="type" route="11-10" depart="971" />
    <vehicle id="v_83" type="type" route="7-8" depart="987" />
    <vehicle id="v_84" type="type" route="9-5b" depart="991" />
    <vehicle id="v_85" type="type" route="5-10" depart="992" />
    <vehicle id="v_86" type="type" route="10-11" depart="1006" />
    <vehicle id="v_87" type="type" route="8-6" depart="1016" />
    <vehicle id="v_88" type="type" route="8-4a" depart="1027" />
    <vehicle id="v_89" type="type" route="5-8b" depart="1035" />
    <vehicle id="v_90" type="type" route="8-5a" depart="1038" />
    <vehicle id="v_91" type="type" route="8-7" depart="1050" />
    <vehicle id="v_92" type="type" route="7-10b" depart="1076" />
    <vehicle id="v_93" type="type" route="5-5" depart="1093" />
    <vehicle id="v_94" type="type" route="11-11" depart="1097" />
    <vehicle id="v_95" type="type" route="4-8a" depart="1111" />
    <vehicle id="v_96" type="type" route="9-8" depart="1122" />
    <vehicle id="v_97" type="type" route="4-10" depart="1131" />
    <vehicle id="v_98" type="type" route="7-11a" depart="1133" />
    <vehicle id="v_99" type="type" route="6-10a" depart="1142" />
    <vehicle id="v_100" type="type" route="7-10a" depart="1201" />
    <vehicle id="v_101" type="type" route="8-7" depart="1209" />
    <vehicle id="v_102" type="type" route="11-7a" depart="1212" />
    <vehicle id="v_103" type="type" route="6-11b" depart="1213" />
    <vehicle id="v_104" type="type" route="9-8" depart="1285" />
    <vehicle id="v_105" type="type" route="10-4" depart="1290" />
    <vehicle id="v_106" type="type" route="8-9" depart="1292" />
    <vehicle id="v_107" type="type" route="11-8" depart="1313" />
    <vehicle id="v_108" type="type" route="8-4b" depart="1320" />
    <vehicle id="v_109" type="type" route="9-4b" depart="1332" />
    <vehicle id="v_110" type="type" route="11-6a" depart="1340" />
    <vehicle id="v_111" type="type" route="7-11a" depart="1350" />
    <vehicle id="v_112" type="type" route="6-8" depart="1356" />
    <vehicle id="v_113" type="type" route="9-10" depart="1395" />
    <vehicle id="v_114" type="type" route="6-4" depart="1416" />
    <vehicle id="v_115" type="type" route="8-7" depart="1439" />
    <vehicle id="v_116" type="type" route="11-10" depart="1447" />
    <vehicle id="v_117" type="type" route="8-11" depart="1472" />
    <vehicle id="v_118" type="type" route="5-10" depart="1508" />
    <vehicle id="v_119" type="type" route="4-8a" depart="1514" />
    <vehicle id="v_120" type="type" route="11-6a" depart="1528" />
    <vehicle id="v_121" type="type" route="9-8" depart="1555" />
    <vehicle id="v_122" type="type" route="7-8" depart="1571" />
    <vehicle id="v_123" type="type" route="9-7" depart="1573" />
    <vehicle id="v_124" type="type" route="9-11" depart="1575" />
    <vehicle id="v_125" type="type" route="5-11" depart="1610" />
    <vehicle id="v_126" type="type" route="11-4" depart="1617" />
    <vehicle id="v_127" type="type" route="7-11a" depart="1618" />
    <vehicle id="v_128" type="type" route="10-8" depart="1635" />
    <vehicle id="v_129" type="type" route="6-4" depart="1647" />
    <vehicle id="v_130" type="type" route="11-10" depart="1654" />
    <vehicle id="v_131" type="type" route="4-6" depart="1671" />
    <vehicle id="v_132" type="type" route="10-6a" depart="1674" />
    <vehicle id="v_133" type="type" route="5-4" depart="1692" />
    <vehicle id="v_134" type="type" route="11-7a" depart="1694" />
    <vehicle id="v_135" type="type" route="7-8" depart="1709" />
    <vehicle id="v_136" type="type" route="11-7b" depart="1719" />
    <vehicle id="v_137" type="type" route="10-4" depart="1720" />
    <vehicle id="v_138" type="type" route="7-5" depart="1732" />
    <vehicle id="v_139" type="type" route="9-5a" depart="1734" />
    <vehicle id="v_140" type="type" route="8-11" depart="1746" />
    <vehicle id="v_141" type="type" route="9-4b" depart="1753" />
    <vehicle id="v_142" type="type" route="8-5a" depart="1766" />
    <vehicle id="v_143" type="type" route="10-10" depart="1781" />
    <vehicle id="v_144" type="type" route="7-9" depart="1782" />
    <vehicle id="v_145" type="type" route="4-9b" depart="1791" />
    <vehicle id="v_146" type="type" route="8-11" depart="1811" />
    <vehicle id="v_147" type="type" route="4-9b" depart="1817" />
    <vehicle id="v_148" type="type" route="4-9b" depart="1835" />
    <vehicle id="v_149" type="type" route="6-10a" depart="1858" />
    <vehicle id="v_150" type="type" route="4-9b" depart="1864" />
    <vehicle id="v_151" type="type" route="7-11b" depart="1885" />
    <vehicle id="v_152" type="type" route="8-5b" depart="1897" />
    <vehicle id="v_153" type="type" route="9-4b" depart="1921" />
    <vehicle id="v_154" type="type" route="9-4b" depart="1924" />
    <vehicle id="v_155" type="type" route="11-6b" depart="1926" />
    <vehicle id="v_156" type="type" route="6-7" depart="1927" />
    <vehicle id="v_157" type="type" route="5-9a" depart="1949" />
    <vehicle id="v_158" type="type" route="5-10" depart="1956" />
    <vehicle id="v_159" type="type" route="7-9" depart="1974" />
    <vehicle id="v_160" type="type" route="10-5" depart="1979" />
    <vehicle id="v_161" type="type" route="7-7" depart="2071" />
    <vehicle id="v_162" type="type" route="7-8" depart="2080" />
    <vehicle id="v_163" type="type" route="9-10" depart="2101" />
    <vehicle id="v_164" type="type" route="10-6a" depart="2106" />
    <vehicle id="v_165" type="type" route="10-6a" depart="2107" />
    <vehicle id="v_166" type="type" route="7-11a" depart="2114" />
    <vehicle id="v_167" type="type" route="8-6" depart="2118" />
    <vehicle id="v_168" type="type" route="4-8b" depart="2124" />
    <vehicle id="v_169" type="type" route="9-6" depart="2146" />
    <vehicle id="v_170" type="type" route="7-10b" depart="2178" />
    <vehicle id="v_171" type="type" route="10-4" depart="2195" />
    <vehicle id="v_172" type="type" route="9-5a" depart="2204" />
    <vehicle id="v_173" type="type" route="8-7" depart="2217" />
    <vehicle id="v_174" type="type" route="6-11a" depart="2252" />
    <vehicle id="v_175" type="type" route="8-6" depart="2265" />
    <vehicle id="v_176" type="type" route="9-7" depart="2266" />
    <vehicle id="v_177" type="type" route="5-6" depart="2274" />
    <vehicle id="v_178" type="type" route="4-9b" depart="2275" />
    <vehicle id="v_179" type="type" route="9-8" depart="2284" />
    <vehicle id="v_180" type="type" route="5-9a" depart="2290" />
    <vehicle id="v_181" type="type" route="8-7" depart="2298" />
    <vehicle id="v_182" type="type" route="10-9" depart="2311" />
    <vehicle id="v_183" type="type" route="8-7" depart="2323" />
    <vehicle id="v_184" type="type" route="4-4" depart="2353" />
    <vehicle id="v_185" type="type" route="7-9" depart="2356" />
    <vehicle id="v_186" type="type" route="7-9" depart="2359" />
    <vehicle id="v_187" type="type" route="7-5" depart="2368" />
    <vehicle id="v_188" type="type" route="10-6b" depart="2376" />
    <vehicle id="v_189" type="type" route="8-11" depart="2381" />
    <vehicle id="v_190" type="type" route="9-10" depart="2395" />
    <vehicle id="v_191" type="type" route="9-4a" depart="2396" />
    <vehicle id="v_192" type="type" route="4-9a" depart="2398" />
    <vehicle id="v_193" type="type" route="5-9a" depart="2420" />
    <vehicle id="v_194" type="type" route="11-8" depart="2430" />
    <vehicle id="v_195" type="type" route="5-5" depart="2435" />
    <vehicle id="v_196" type="type" route="6-8" depart="2441" />
    <vehicle id="v_197" type="type" route="10-4" depart="2442" />
    <vehicle id="v_198" type="type" route="6-4" depart="2446" />
    <vehicle id="v_199" type="type" route="4-4" depart="2452" />
    <vehicle id="v_200" type="type" route="5-7" depart="2474" />
    <vehicle id="v_201" type="type" route="4-7" depart="2486" />
    <vehicle id="v_202" type="type" route="11-9" depart="2491" />
    <vehicle id="v_203" type="type" route="7-9" depart="2495" />
    <vehicle id="v_204" type="type" route="5-9b" depart="2499" />
    <vehicle id="v_205" type="type" route="7-8" depart="2525" />
    <vehicle id="v_206" type="type" route="9-4b" depart="2538" />
    <vehicle id="v_207" type="type" route="7-10a" depart="2562" />
    <vehicle id="v_208" type="type" route="10-7b" depart="2564" />
    <vehicle id="v_209" type="type" route="5-5" depart="2567" />
    <vehicle id="v_210" type="type" route="11-5" depart="2575" />
    <vehicle id="v_211" type="type" route="11-11" depart="2578" />
    <vehicle id="v_212" type="type" route="9-4a" depart="2601" />
    <vehicle id="v_213" type="type" route="9-4a" depart="2606" />
    <vehicle id="v_214" type="type" route="11-6b" depart="2610" />
    <vehicle id="v_215" type="type" route="11-7a" depart="2624" />
    <vehicle id="v_216" type="type" route="4-5" depart="2631" />
    <vehicle id="v_217" type="type" route="10-7a" depart="2631" />
    <vehicle id="v_218" type="type" route="9-5a" depart="2642" />
    <vehicle id="v_219" type="type" route="11-8" depart="2648" />
    <vehicle id="v_220" type="type" route="5-10" depart="2650" />
    <vehicle id="v_221" type="type" route="11-8" depart="2656" />
    <vehicle id="v_222" type="type" route="11-10" depart="2658" />
    <vehicle id="v_223" type="type" route="10-7a" depart="2661" />
    <vehicle id="v_224" type="type" route="5-10" depart="2680" />
    <vehicle id="v_225" type="type" route="10-11" depart="2683" />
    <vehicle id="v_226" type="type" route="9-5b" depart="2699" />
    <vehicle id="v_227" type="type" route="10-10" depart="2743" />
    <vehicle id="v_228" type="type" route="6-10b" depart="2754" />
    <vehicle id="v_229" type="type" route="11-4" depart="2756" />
    <vehicle id="v_230" type="type" route="9-8" depart="2761" />
    <vehicle id="v_231" type="type" route="9-4a" depart="2771" />
    <vehicle id="v_232" type="type" route="5-6" depart="2786" />
    <vehicle id="v_233" type="type" route="6-6" depart="2805" />
    <vehicle id="v_234" type="type" route="11-10" depart="2817" />
    <vehicle id="v_235" type="type" route="5-10" depart="2819" />
    <vehicle id="v_236" type="type" route="9-9" depart="2825" />
    <vehicle id="v_237" type="type" route="4-7" depart="2840" />
    <vehicle id="v_238" type="type" route="10-11" depart="2840" />
    <vehicle id="v_239" type="type" route="7-10a" depart="2848" />
    <vehicle id="v_240" type="type" route="10-4" depart="2849" />
    <vehicle id="v_241" type="type" route="5-10" depart="2851" />
    <vehicle id="v_242" type="type" route="4-8b" depart="2872" />
    <vehicle id="v_243" type="type" route="10-10" depart="2876" />
    <vehicle id="v_244" type="type" route="9-10" depart="2881" />
    <vehicle id="v_245" type="type" route="6-8" depart="2888" />
    <vehicle id="v_246" type="type" route="5-11" depart="2902" />
    <vehicle id="v_247" type="type" route="11-10" depart="2923" />
    <vehicle id="v_248" type="type" route="4-4" depart="2929" />
    <vehicle id="v_249" type="type" route="11-6b" depart="2933" />
    <vehicle id="v_250" type="type" route="9-4a" depart="2942" />
    <vehicle id="v_251" type="type" route="11-7b" depart="2961" />
    <vehicle id="v_252" type="type" route="6-10b" depart="2965" />
    <vehicle id="v_253" type="type" route="7-11b" depart="2967" />
    <vehicle id="v_254" type="type" route="8-8" depart="2968" />
    <vehicle id="v_255" type="type" route="8-5b" depart="2993" />
    <vehicle id="v_256" type="type" route="11-9" depart="2994" />
    <vehicle id="v_257" type="type" route="7-5" depart="3040" />
    <vehicle id="v_258" type="type" route="8-5b" depart="3049" />
    <vehicle id="v_259" type="type" route="11-7a" depart="3057" />
    <vehicle id="v_260" type="type" route="6-4" depart="3065" />
    <vehicle id="v_261" type="type" route="8-11" depart="3080" />
    <vehicle id="v_262" type="type" route="9-11" depart="3102" />
    <vehicle id="v_263" type="type" route="9-4b" depart="3109" />
    <vehicle id="v_264" type="type" route="5-8a" depart="3161" />
    <vehicle id="v_265" type="type" route="7-9" depart="3221" />
    <vehicle id="v_266" type="type" route="6-7" depart="3229" />
    <vehicle id="v_267" type="type" route="9-11" depart="3252" />
    <vehicle id="v_268" type="type" route="10-8" depart="3261" />
    <vehicle id="v_269" type="type" route="5-8a" depart="3271" />
    <vehicle id="v_270" type="type" route="9-10" depart="3281" />
    <vehicle id="v_271" type="type" route="7-11a" depart="3309" />
    <vehicle id="v_272" type="type" route="6-11b" depart="3317" />
    <vehicle id="v_273" type="type" route="9-10" depart="3343" />
    <vehicle id="v_274" type="type" route="10-6a" depart="3348" />
    <vehicle id="v_275" type="type" route="5-11" depart="3349" />
    <vehicle id="v_276" type="type" route="5-5" depart="3353" />
    <vehicle id="v_277" type="type" route="9-8" depart="3375" />
    <vehicle id="v_278" type="type" route="7-4" depart="3398" />
    <vehicle id="v_279" type="type" route="4-9b" depart="3407" />
    <vehicle id="v_280" type="type" route="11-11" depart="3411" />
    <vehicle id="v_281" type="type" route="11-5" depart="3417" />
    <vehicle id="v_282" type="type" route="9-7" depart="3425" />
    <vehicle id="v_283" type="type" route="11-7b" depart="3432" />
    <vehicle id="v_284" type="type" route="7-8" depart="3439" />
    <vehicle id="v_285" type="type" route="11-7b" depart="3448" />
    <vehicle id="v_286" type="type" route="7-10a" depart="3459" />
    <vehicle id="v_287" type="type" route="4-6" depart="3480" />
    <vehicle id="v_288" type="type" route="5-9b" depart="3485" />
    <vehicle id="v_289" type="type" route="8-5b" depart="3488" />
    <vehicle id="v_290" type="type" route="7-11b" depart="3497" />
    <vehicle id="v_291" type="type" route="4-10" depart="3505" />
    <vehicle id="v_292" type="type" route="5-4" depart="3506" />
    <vehicle id="v_293" type="type" route="8-10" depart="3508" />
    <vehicle id="v_294" type="type" route="11-11" depart="3531" />
    <vehicle id="v_295" type="type" route="5-9b" depart="3563" />
    <vehicle id="v_296" type="type" route="7-8" depart="3581" />
    <vehicle id="v_297" type="type" route="11-11" depart="3597" />
    <vehicle id="v_298" type="type" route="9-10" depart="3607" />
    <vehicle id="v_299" type="type" route="11-9" depart="3618" />
    <vehicle id="v_300" type="type" route="5-9b" depart="3658" />
    <vehicle id="v_301" type="type" route="4-7" depart="3679" />
    <vehicle id="v_302" type="type" route="9-8" depart="3683" />
    <vehicle id="v_303" type="type" route="4-11" depart="3684" />
    <vehicle id="v_304" type="type" route="4-5" depart="3689" />
    <vehicle id="v_305" type="type" route="4-8a" depart="3719" />
    <vehicle id="v_306" type="type" route="5-6" depart="3721" />
    <vehicle id="v_307" type="type" route="11-4" depart="3746" />
    <vehicle id="v_308" type="type" route="9-9" depart="3747" />
    <vehicle id="v_309" type="type" route="5-7" depart="3771" />
    <vehicle id="v_310" type="type" route="7-7" depart="3772" />
    <vehicle id="v_311" type="type" route="4-10" depart="3780" />
    <vehicle id="v_312" type="type" route="9-8" depart="3784" />
    <vehicle id="v_313" type="type" route="4-4" depart="3798" />
    <vehicle id="v_314" type="type" route="6-4" depart="3806" />
    <vehicle id="v_315" type="type" route="4-7" depart="3809" />
    <vehicle id="v_316" type="type" route="8-8" depart="3835" />
    <vehicle id="v_317" type="type" route="4-9b" depart="3842" />
    <vehicle id="v_318" type="type" route="9-4a" depart="3844" />
    <vehicle id="v_319" type="type" route="11-10" depart="3857" />
    <vehicle id="v_320" type="type" route="9-10" depart="3865" />
    <vehicle id="v_321" type="type" route="4-11" depart="3876" />
    <vehicle id="v_322" type="type" route="4-8b" depart="3877" />
    <vehicle id="v_323" type="type" route="6-5" depart="3885" />
    <vehicle id="v_324" type="type" route="10-5" depart="3894" />
    <vehicle id="v_325" type="type" route="7-6" depart="3925" />
    <vehicle id="v_326" type="type" route="7-6" depart="3931" />
    <vehicle id="v_327" type="type" route="6-7" depart="3941" />
    <vehicle id="v_328" type="type" route="5-9a" depart="3964" />
    <vehicle id="v_329" type="type" route="6-11a" depart="3964" />
    <vehicle id="v_330" type="type" route="10-10" depart="3996" />
    <vehicle id="v_331" type="type" route="8-5a" depart="4028" />
    <vehicle id="v_332" type="type" route="7-9" depart="4043" />
    <vehicle id="v_333" type="type" route="4-5" depart="4055" />
    <vehicle id="v_334" type="type" route="7-4" depart="4059" />
    <vehicle id="v_335" type="type" route="5-9b" depart="4078" />
    <vehicle id="v_336" type="type" route="7-6" depart="4078" />
    <vehicle id="v_337" type="type" route="10-8" depart="4090" />
    <vehicle id="v_338" type="type" route="4-9b" depart="4112" />
    <vehicle id="v_339" type="type" route="7-7" depart="4121" />
    <vehicle id="v_340" type="type" route="9-4a" depart="4132" />
    <vehicle id="v_341" type="type" route="10-4" depart="4145" />
    <vehicle id="v_342" type="type" route="7-7" depart="4154" />
    <vehicle id="v_343" type="type" route="4-6" depart="4168" />
    <vehicle id="v_344" type="type" route="7-11b" depart="4169" />
    <vehicle id="v_345" type="type" route="11-4" depart="4171" />
    <vehicle id="v_346" type="type" route="11-6b" depart="4182" />
    <vehicle id="v_347" type="type" route="5-9a" depart="4189" />
    <vehicle id="v_348" type="type" route="6-4" depart="4200" />
    <vehicle id="v_349" type="type" route="6-10a" depart="4208" />
    <vehicle id="v_350" type="type" route="10-6b" depart="4217" />
    <vehicle id="v_351" type="type" route="4-7" depart="4236" />
    <vehicle id="v_352" type="type" route="11-7a" depart="4290" />
    <vehicle id="v_353" type="type" route="11-10" depart="4297" />
    <vehicle id="v_354" type="type" route="8-10" depart="4318" />
    <vehicle id="v_355" type="type" route="8-5b" depart="4321" />
    <vehicle id="v_356" type="type" route="10-10" depart="4323" />
    <vehicle id="v_357" type="type" route="4-8a" depart="4340" />
    <vehicle id="v_358" type="type" route="6-11b" depart="4352" />
    <vehicle id="v_359" type="type" route="6-5" depart="4365" />
    <vehicle id="v_360" type="type" route="8-8" depart="4366" />
    <vehicle id="v_361" type="type" route="11-6b" depart="4377" />
    <vehicle id="v_362" type="type" route="5-9a" depart="4379" />
    <vehicle id="v_363" type="type" route="8-11" depart="4399" />
    <vehicle id="v_364" type="type" route="7-9" depart="4401" />
    <vehicle id="v_365" type="type" route="8-6" depart="4425" />
    <vehicle id="v_366" type="type" route="9-6" depart="4433" />
    <vehicle id="v_367" type="type" route="11-6a" depart="4444" />
    <vehicle id="v_368" type="type" route="11-11" depart="4449" />
    <vehicle id="v_369" type="type" route="11-6a" depart="4458" />
    <vehicle id="v_370" type="type" route="4-5" depart="4462" />
    <vehicle id="v_371" type="type" route="11-6a" depart="4508" />
    <vehicle id="v_372" type="type" route="9-7" depart="4514" />
    <vehicle id="v_373" type="type" route="6-11b" depart="4538" />
    <vehicle id="v_374" type="type" route="4-4" depart="4542" />
    <vehicle id="v_375" type="type" route="6-6" depart="4544" />
    <vehicle id="v_376" type="type" route="5-5" depart="4550" />
    <vehicle id="v_377" type="type" route="6-10b" depart="4550" />
    <vehicle id="v_378" type="type" route="5-4" depart="4580" />
    <vehicle id="v_379" type="type" route="8-7" depart="4612" />
    <vehicle id="v_380" type="type" route="9-6" depart="4615" />
    <vehicle id="v_381" type="type" route="8-4b" depart="4616" />
    <vehicle id="v_382" type="type" route="10-7b" depart="4623" />